version 3
run HandoverSimulation2-0-20240914-20:41:56-15496
attr configname HandoverSimulation2
attr datetime 20240914-20:41:56
attr datetimef 20240914-204156
attr experiment HandoverSimulation2
attr inifile omnetpp.ini
attr iterationvars ""
attr iterationvarsd ""
attr iterationvarsf ""
attr measurement ""
attr network simu5g.simulations.NR.networks.MultiCell_Standalone
attr processid 15496
attr repetition 0
attr replication #0
attr resultdir results
attr runnumber 0
attr seedset 0
config image-path ../../../images;../../../../inet4.5/images
config description "Simulation with UE moving from gNB1 to gNB2 to observe handover"
config network simu5g.simulations.NR.networks.MultiCell_Standalone
config sim-time-limit 20s
config warmup-period 1s
config extends General
config **.amcType "\"NRAmc\""
config **.targetBler 0.01
config **.blerShift 5
config *.configurator.config "xmldoc(\"demo.xml\")"
config **.mobility.constraintAreaMaxX 1000m
config **.mobility.constraintAreaMaxY 1000m
config **.mobility.constraintAreaMinX 0m
config **.mobility.constraintAreaMinY 0m
config **.mobility.constraintAreaMinZ 0m
config **.mobility.constraintAreaMaxZ 0m
config **.mobility.initFromDisplayString false
config *.numUe 1
config *.ue[*].mobility.typename LinearMobility
config *.ue[*].mobility.initialX 250m
config *.ue[*].mobility.initialY 350m
config *.ue[*].mobility.speed 25mps
config *.ue[*].mobility.angle 0deg
config *.ue[*].mobility.displayMovement true
config *.gnb1.mobility.initialX 250m
config *.gnb1.mobility.initialY 300m
config *.gnb2.mobility.initialX 750m
config *.gnb2.mobility.initialY 300m
config *.gnb1.nodeId 1
config *.gnb2.nodeId 2
config *.gnb1.numX2Apps 1
config *.gnb2.numX2Apps 1
config *.gnb1.x2App[0].typename LteX2GnbApp
config *.gnb2.x2App[0].typename LteX2GnbApp
config *.gnb1.x2App[0].localAddress "\"10.0.0.1\""
config *.gnb1.x2App[0].remoteAddress "\"10.0.0.2\""
config *.gnb1.x2App[0].localPort 0
config *.gnb2.x2App[0].localAddress "\"10.0.0.2\""
config *.gnb2.x2App[0].remoteAddress "\"10.0.0.1\""
config *.gnb2.x2App[0].localPort 0
config *.binder.maxNumX2PortsPerNode 10
config *.gnb1.cellularNic.phy.enableHandover true
config *.gnb2.cellularNic.phy.enableHandover true
config *.ue[*].cellularNic.phy.enableHandover true
config *.ue[*].cellularNic.nrPhy.enableHandover true
config *.ue[*].cellularNic.lteNic.rrc.enableHandover true
config *.gnb1.cellularNic.lteNic.rrc.enableHandover true
config *.gnb2.cellularNic.lteNic.rrc.enableHandover true
config *.ue[*].cellularNic.lteNic.rrc.handoverMargin 3dB
config *.ue[*].cellularNic.lteNic.rrc.timeToTrigger 1s
config *.ue[*].macCellId 0
config *.ue[*].masterId 0
config *.ue[*].nrMacCellId 1
config *.ue[*].nrMasterId 1
config *.server.numApps 1
config *.ue[*].numApps 1
config *.ue[*].app[0].typename UdpSink
config *.ue[*].app[0].localPort 5000
config *.server.app[0].typename UdpBasicBurst
config *.server.app[0].destAddresses "\"ue[0]\""
config *.server.app[0].chooseDestAddrMode "\"once\""
config *.server.app[0].destPort 5000
config *.server.app[0].messageLength 1000B
config *.server.app[0].burstDuration 0s
config *.server.app[0].sleepDuration 0s
config *.server.app[0].sendInterval 0.01s
config *.server.app[0].startTime 1s
config *.server.hasIpv6 false
config *.router.hasIpv6 false
config *.upf.hasIpv6 false
config *.iUpf.hasIpv6 false
config *.gnb1.hasIpv6 false
config *.gnb2.hasIpv6 false
config *.ue[*].hasIpv6 false
config *.server.numEthInterfaces 0
config *.router.numEthInterfaces 0
config *.upf.numEthInterfaces 0
config *.iUpf.numEthInterfaces 0
config output-scalar-file-append false
config network simu5g.simulations.NR.networks.SingleCell_Standalone
config sim-time-limit 10s
config warmup-period 1s
config seed-set 0
config output-scalar-file results/HandoverSimulation2/0.sca
config output-vector-file results/HandoverSimulation2/0.vec
config **.routingRecorder.enabled false
config **.amcType "\"NRAmc\""
config **.targetBler 0.01
config **.blerShift 5
config *.configurator.config "xmldoc(\"./demo.xml\")"
config **.mobility.constraintAreaMaxX 1000m
config **.mobility.constraintAreaMaxY 1000m
config **.mobility.constraintAreaMinX 0m
config **.mobility.constraintAreaMinY 0m
config **.mobility.constraintAreaMinZ 0m
config **.mobility.constraintAreaMaxZ 0m
config **.mobility.initFromDisplayString false

scalar MultiCell_Standalone.gnb1.x2App[0].client ums 1452
scalar MultiCell_Standalone.gnb2.x2App[0].client ums 1452

