version 3
run CBR-DL-1-20241130-11:58:30-429612
attr configname CBR-DL
attr datetime 20241130-11:58:30
attr datetimef 20241130-115830
attr experiment CBR-DL
attr inifile omnetpp.ini
attr iterationvars "$u=0, $numRbs=50, $numUEs=10"
attr iterationvarsd u=0/numRbs=50/numUEs=10
attr iterationvarsf u=0,numRbs=50,numUEs=10-
attr measurement "$u=0, $numRbs=50, $numUEs=10"
attr network simu5g.simulations.SatCom.networks.MultiSeveralSatelliteSatUE_Standalone
attr processid 429612
attr repetition 0
attr replication #0
attr resultdir results
attr runnumber 1
attr seedset 0
itervar numRbs 50
itervar numUEs 10
itervar u 0
config extends MultiCell
config description "CBR DL traffic from remote server to UEs"
config *.ue[*].numApps 1
config *.server.numApps 10
config *.ue[*].app[*].typename CbrReceiver
config *.ue[*].app[*].localPort 3000
config *.server.app[*].typename CbrSender
config *.server.app[*].PacketSize 100
config *.server.app[*].sampling_time 0.02s
config *.server.app[*].destAddress "\"ue[\" + string(ancestorIndex(0)) + \"]\""
config *.server.app[*].destPort 3000
config *.server.app[*].localPort 3088+ancestorIndex(0)
config *.server.app[*].startTime uniform(0s,0.02s)
config *.server.app[*].finishTime 40s
config *.ue[*].cellularNic.rrc.debug true
config *.gnbSat*.cellularNic.rrc.debug true
config *.ue[*].cellularNic.nrPhy.debug true
config *.gnbSat*.cellularNic.nrPhy.debug true
config *.binder.debug true
config *.configurator.verbose true
config network simu5g.simulations.SatCom.networks.MultiSeveralSatelliteSatUE_Standalone
config sim-time-limit 20s
config description "Base configuration, do not run this config!"
config **.mobility.constraintAreaMaxX 1100m
config **.mobility.constraintAreaMaxY 750m
config **.mobility.constraintAreaMinX 0m
config **.mobility.constraintAreaMinY 0m
config **.mobility.constraintAreaMinZ 0m
config **.mobility.constraintAreaMaxZ 0m
config **.mobility.initFromDisplayString false
config *.carrierAggregation.numComponentCarriers 1
config *.carrierAggregation.componentCarrier[0].numerologyIndex 0
config *.carrierAggregation.componentCarrier[0].carrierFrequency 2GHz
config *.carrierAggregation.componentCarrier[0].numBands 50
config *.gnbSat*.cellularNic.numCarriers 1
config *.gnbSat*.cellularNic.channelModel[0].componentCarrierIndex 0
config *.ue[*].cellularNic.numCarriers 1
config *.gnbSat1.mobility.initialX 20m
config *.gnbSat1.mobility.initialY 350m
config *.gnbSat1.mobility.typename LinearMobility
config *.gnbSat1.mobility.initialX 50m
config *.gnbSat1.mobility.initialY 550m
config *.gnbSat1.mobility.speed 15mps
config *.gnbSat1.mobility.initialMovementHeading 0deg
config *.gnbSat2.mobility.initialX 500m
config *.gnbSat2.mobility.initialY 350m
config *.gnbSat2.mobility.typename LinearMobility
config *.gnbSat2.mobility.initialX 50m
config *.gnbSat2.mobility.initialY 550m
config *.gnbSat2.mobility.speed 15mps
config *.gnbSat2.mobility.initialMovementHeading 0deg
config *.gnbSat3.mobility.initialX 350m
config *.gnbSat3.mobility.initialY 110m
config *.gnbSat3.mobility.typename LinearMobility
config *.gnbSat3.mobility.initialX 50m
config *.gnbSat3.mobility.initialY 550m
config *.gnbSat3.mobility.speed 15mps
config *.gnbSat3.mobility.initialMovementHeading 90deg
config *.gnbSat*.numX2Apps 2
config *.gnbSat*.x2App[*].server.localPort "5000 + ancestorIndex(1)"
config *.gnbSat1.x2App[0].client.connectAddress "\"gnbSat2%x2ppp0\""
config *.gnbSat1.x2App[1].client.connectAddress "\"gnbSat3%x2ppp0\""
config *.gnbSat2.x2App[0].client.connectAddress "\"gnbSat1%x2ppp0\""
config *.gnbSat2.x2App[1].client.connectAddress "\"gnbSat3%x2ppp0\""
config *.gnbSat3.x2App[0].client.connectAddress "\"gnbSat1%x2ppp0\""
config *.gnbSat3.x2App[1].client.connectAddress "\"gnbSat2%x2ppp0\""
config *.numUe 10
config *.ue[*].macCellId 0
config *.ue[*].masterId 0
config *.ue[*].nrMacCellId 1
config *.ue[*].nrMasterId 2
config **.dynamicCellAssociation false
config **.enableHandover true
config *.ue[0].mobility.initialX 450m
config *.ue[0].mobility.initialY 350m
config image-path ../../../images
config output-scalar-file-append false
config **.routingRecorder.enabled false
config output-scalar-file "results/CBR-DL/$u=0, $numRbs=50, $numUEs=10-0.sca"
config output-vector-file "results/CBR-DL/$u=0, $numRbs=50, $numUEs=10-0.vec"
config seed-set 0
config **.sctp.**.scalar-recording false
config **.sctp.**.vector-recording false
config **.vector-recording true
config **.sctp.nagleEnabled false
config **.sctp.enableHeartbeats false
config **.downlink_interference true
config **.uplink_interference true
config **.ueTxPower 1dBm
config **.eNodeBTxPower 2dBm
config **.targetBler 0.01
config **.blerShift 5
config **.fbPeriod 40
config *.configurator.config "xmldoc(\"./demo.xml\")"

scalar MultiSeveralSatelliteSatUE_Standalone.gnbSat1.x2App[0].client ums 1452
scalar MultiSeveralSatelliteSatUE_Standalone.gnbSat1.x2App[1].client ums 1452
scalar MultiSeveralSatelliteSatUE_Standalone.gnbSat2.x2App[0].client ums 1452
scalar MultiSeveralSatelliteSatUE_Standalone.gnbSat2.x2App[1].client ums 1452
scalar MultiSeveralSatelliteSatUE_Standalone.gnbSat3.x2App[0].client ums 1452
scalar MultiSeveralSatelliteSatUE_Standalone.gnbSat3.x2App[1].client ums 1452
par MultiSeveralSatelliteSatUE_Standalone.server.pppg$o[0].channel typename "\"inet.node.ethernet.Eth10G\""
par MultiSeveralSatelliteSatUE_Standalone.server.pppg$o[0].channel disabled false
attr mutable ""
par MultiSeveralSatelliteSatUE_Standalone.server.pppg$o[0].channel delay 5e-08s
attr mutable ""
attr unit s
par MultiSeveralSatelliteSatUE_Standalone.server.pppg$o[0].channel datarate 1e+10bps
attr mutable ""
attr unit bps
par MultiSeveralSatelliteSatUE_Standalone.server.pppg$o[0].channel ber 0
attr mutable ""
par MultiSeveralSatelliteSatUE_Standalone.server.pppg$o[0].channel per 0
attr mutable ""
par MultiSeveralSatelliteSatUE_Standalone.server.pppg$o[0].channel length 10m
attr unit m
par MultiSeveralSatelliteSatUE_Standalone.router.pppg$o[0].channel typename "\"inet.node.ethernet.Eth10G\""
par MultiSeveralSatelliteSatUE_Standalone.router.pppg$o[0].channel disabled false
attr mutable ""
par MultiSeveralSatelliteSatUE_Standalone.router.pppg$o[0].channel delay 5e-08s
attr mutable ""
attr unit s
par MultiSeveralSatelliteSatUE_Standalone.router.pppg$o[0].channel datarate 1e+10bps
attr mutable ""
attr unit bps
par MultiSeveralSatelliteSatUE_Standalone.router.pppg$o[0].channel ber 0
attr mutable ""
par MultiSeveralSatelliteSatUE_Standalone.router.pppg$o[0].channel per 0
attr mutable ""
par MultiSeveralSatelliteSatUE_Standalone.router.pppg$o[0].channel length 10m
attr unit m
par MultiSeveralSatelliteSatUE_Standalone.router.pppg$o[1].channel typename "\"inet.node.ethernet.Eth10G\""
par MultiSeveralSatelliteSatUE_Standalone.router.pppg$o[1].channel disabled false
attr mutable ""
par MultiSeveralSatelliteSatUE_Standalone.router.pppg$o[1].channel delay 5e-08s
attr mutable ""
attr unit s
par MultiSeveralSatelliteSatUE_Standalone.router.pppg$o[1].channel datarate 1e+10bps
attr mutable ""
attr unit bps
par MultiSeveralSatelliteSatUE_Standalone.router.pppg$o[1].channel ber 0
attr mutable ""
par MultiSeveralSatelliteSatUE_Standalone.router.pppg$o[1].channel per 0
attr mutable ""
par MultiSeveralSatelliteSatUE_Standalone.router.pppg$o[1].channel length 10m
attr unit m
par MultiSeveralSatelliteSatUE_Standalone.upf.filterGate$o.channel typename "\"inet.node.ethernet.Eth10G\""
par MultiSeveralSatelliteSatUE_Standalone.upf.filterGate$o.channel disabled false
attr mutable ""
par MultiSeveralSatelliteSatUE_Standalone.upf.filterGate$o.channel delay 5e-08s
attr mutable ""
attr unit s
par MultiSeveralSatelliteSatUE_Standalone.upf.filterGate$o.channel datarate 1e+10bps
attr mutable ""
attr unit bps
par MultiSeveralSatelliteSatUE_Standalone.upf.filterGate$o.channel ber 0
attr mutable ""
par MultiSeveralSatelliteSatUE_Standalone.upf.filterGate$o.channel per 0
attr mutable ""
par MultiSeveralSatelliteSatUE_Standalone.upf.filterGate$o.channel length 10m
attr unit m
par MultiSeveralSatelliteSatUE_Standalone.upf.pppg$o[0].channel typename "\"inet.node.ethernet.Eth10G\""
par MultiSeveralSatelliteSatUE_Standalone.upf.pppg$o[0].channel disabled false
attr mutable ""
par MultiSeveralSatelliteSatUE_Standalone.upf.pppg$o[0].channel delay 5e-08s
attr mutable ""
attr unit s
par MultiSeveralSatelliteSatUE_Standalone.upf.pppg$o[0].channel datarate 1e+10bps
attr mutable ""
attr unit bps
par MultiSeveralSatelliteSatUE_Standalone.upf.pppg$o[0].channel ber 0
attr mutable ""
par MultiSeveralSatelliteSatUE_Standalone.upf.pppg$o[0].channel per 0
attr mutable ""
par MultiSeveralSatelliteSatUE_Standalone.upf.pppg$o[0].channel length 10m
attr unit m
par MultiSeveralSatelliteSatUE_Standalone.iUpf.pppg$o[0].channel typename "\"inet.node.ethernet.Eth10G\""
par MultiSeveralSatelliteSatUE_Standalone.iUpf.pppg$o[0].channel disabled false
attr mutable ""
par MultiSeveralSatelliteSatUE_Standalone.iUpf.pppg$o[0].channel delay 5e-08s
attr mutable ""
attr unit s
par MultiSeveralSatelliteSatUE_Standalone.iUpf.pppg$o[0].channel datarate 1e+10bps
attr mutable ""
attr unit bps
par MultiSeveralSatelliteSatUE_Standalone.iUpf.pppg$o[0].channel ber 0
attr mutable ""
par MultiSeveralSatelliteSatUE_Standalone.iUpf.pppg$o[0].channel per 0
attr mutable ""
par MultiSeveralSatelliteSatUE_Standalone.iUpf.pppg$o[0].channel length 10m
attr unit m
par MultiSeveralSatelliteSatUE_Standalone.iUpf.pppg$o[1].channel typename "\"simu5g.simulations.SatCom.networks.FeederLink\""
par MultiSeveralSatelliteSatUE_Standalone.iUpf.pppg$o[1].channel disabled false
attr mutable ""
par MultiSeveralSatelliteSatUE_Standalone.iUpf.pppg$o[1].channel delay 0.00143155s
attr mutable ""
attr unit s
par MultiSeveralSatelliteSatUE_Standalone.iUpf.pppg$o[1].channel datarate 2e+10bps
attr mutable ""
attr unit bps
par MultiSeveralSatelliteSatUE_Standalone.iUpf.pppg$o[1].channel ber 1e-07
attr mutable ""
par MultiSeveralSatelliteSatUE_Standalone.iUpf.pppg$o[1].channel per 0
attr mutable ""
par MultiSeveralSatelliteSatUE_Standalone.gnbSat1.ppp$o.channel typename "\"simu5g.simulations.SatCom.networks.FeederLink\""
par MultiSeveralSatelliteSatUE_Standalone.gnbSat1.ppp$o.channel disabled false
attr mutable ""
par MultiSeveralSatelliteSatUE_Standalone.gnbSat1.ppp$o.channel delay 0.0025201s
attr mutable ""
attr unit s
par MultiSeveralSatelliteSatUE_Standalone.gnbSat1.ppp$o.channel datarate 2e+10bps
attr mutable ""
attr unit bps
par MultiSeveralSatelliteSatUE_Standalone.gnbSat1.ppp$o.channel ber 1e-07
attr mutable ""
par MultiSeveralSatelliteSatUE_Standalone.gnbSat1.ppp$o.channel per 0
attr mutable ""
par MultiSeveralSatelliteSatUE_Standalone.iUpf.pppg$o[2].channel typename "\"simu5g.simulations.SatCom.networks.FeederLink\""
par MultiSeveralSatelliteSatUE_Standalone.iUpf.pppg$o[2].channel disabled false
attr mutable ""
par MultiSeveralSatelliteSatUE_Standalone.iUpf.pppg$o[2].channel delay 0.00159379s
attr mutable ""
attr unit s
par MultiSeveralSatelliteSatUE_Standalone.iUpf.pppg$o[2].channel datarate 2e+10bps
attr mutable ""
attr unit bps
par MultiSeveralSatelliteSatUE_Standalone.iUpf.pppg$o[2].channel ber 1e-07
attr mutable ""
par MultiSeveralSatelliteSatUE_Standalone.iUpf.pppg$o[2].channel per 0
attr mutable ""
par MultiSeveralSatelliteSatUE_Standalone.gnbSat2.ppp$o.channel typename "\"simu5g.simulations.SatCom.networks.FeederLink\""
par MultiSeveralSatelliteSatUE_Standalone.gnbSat2.ppp$o.channel disabled false
attr mutable ""
par MultiSeveralSatelliteSatUE_Standalone.gnbSat2.ppp$o.channel delay 0.00233956s
attr mutable ""
attr unit s
par MultiSeveralSatelliteSatUE_Standalone.gnbSat2.ppp$o.channel datarate 2e+10bps
attr mutable ""
attr unit bps
par MultiSeveralSatelliteSatUE_Standalone.gnbSat2.ppp$o.channel ber 1e-07
attr mutable ""
par MultiSeveralSatelliteSatUE_Standalone.gnbSat2.ppp$o.channel per 0
attr mutable ""
par MultiSeveralSatelliteSatUE_Standalone.iUpf.pppg$o[3].channel typename "\"simu5g.simulations.SatCom.networks.FeederLink\""
par MultiSeveralSatelliteSatUE_Standalone.iUpf.pppg$o[3].channel disabled false
attr mutable ""
par MultiSeveralSatelliteSatUE_Standalone.iUpf.pppg$o[3].channel delay 0.00263591s
attr mutable ""
attr unit s
par MultiSeveralSatelliteSatUE_Standalone.iUpf.pppg$o[3].channel datarate 2e+10bps
attr mutable ""
attr unit bps
par MultiSeveralSatelliteSatUE_Standalone.iUpf.pppg$o[3].channel ber 1e-07
attr mutable ""
par MultiSeveralSatelliteSatUE_Standalone.iUpf.pppg$o[3].channel per 0
attr mutable ""
par MultiSeveralSatelliteSatUE_Standalone.gnbSat3.ppp$o.channel typename "\"simu5g.simulations.SatCom.networks.FeederLink\""
par MultiSeveralSatelliteSatUE_Standalone.gnbSat3.ppp$o.channel disabled false
attr mutable ""
par MultiSeveralSatelliteSatUE_Standalone.gnbSat3.ppp$o.channel delay 0.00207975s
attr mutable ""
attr unit s
par MultiSeveralSatelliteSatUE_Standalone.gnbSat3.ppp$o.channel datarate 2e+10bps
attr mutable ""
attr unit bps
par MultiSeveralSatelliteSatUE_Standalone.gnbSat3.ppp$o.channel ber 1e-07
attr mutable ""
par MultiSeveralSatelliteSatUE_Standalone.gnbSat3.ppp$o.channel per 0
attr mutable ""
par MultiSeveralSatelliteSatUE_Standalone.gnbSat1.x2$o[0].channel typename "\"simu5g.simulations.SatCom.networks.InterSatelliteLink\""
par MultiSeveralSatelliteSatUE_Standalone.gnbSat1.x2$o[0].channel disabled false
attr mutable ""
par MultiSeveralSatelliteSatUE_Standalone.gnbSat1.x2$o[0].channel delay 0.0136085s
attr mutable ""
attr unit s
par MultiSeveralSatelliteSatUE_Standalone.gnbSat1.x2$o[0].channel datarate 1e+10bps
attr mutable ""
attr unit bps
par MultiSeveralSatelliteSatUE_Standalone.gnbSat1.x2$o[0].channel ber 1e-06
attr mutable ""
par MultiSeveralSatelliteSatUE_Standalone.gnbSat1.x2$o[0].channel per 0
attr mutable ""
par MultiSeveralSatelliteSatUE_Standalone.gnbSat2.x2$o[0].channel typename "\"simu5g.simulations.SatCom.networks.InterSatelliteLink\""
par MultiSeveralSatelliteSatUE_Standalone.gnbSat2.x2$o[0].channel disabled false
attr mutable ""
par MultiSeveralSatelliteSatUE_Standalone.gnbSat2.x2$o[0].channel delay 0.011574s
attr mutable ""
attr unit s
par MultiSeveralSatelliteSatUE_Standalone.gnbSat2.x2$o[0].channel datarate 1e+10bps
attr mutable ""
attr unit bps
par MultiSeveralSatelliteSatUE_Standalone.gnbSat2.x2$o[0].channel ber 1e-06
attr mutable ""
par MultiSeveralSatelliteSatUE_Standalone.gnbSat2.x2$o[0].channel per 0
attr mutable ""
par MultiSeveralSatelliteSatUE_Standalone.gnbSat1.x2$o[1].channel typename "\"simu5g.simulations.SatCom.networks.InterSatelliteLink\""
par MultiSeveralSatelliteSatUE_Standalone.gnbSat1.x2$o[1].channel disabled false
attr mutable ""
par MultiSeveralSatelliteSatUE_Standalone.gnbSat1.x2$o[1].channel delay 0.00981028s
attr mutable ""
attr unit s
par MultiSeveralSatelliteSatUE_Standalone.gnbSat1.x2$o[1].channel datarate 1e+10bps
attr mutable ""
attr unit bps
par MultiSeveralSatelliteSatUE_Standalone.gnbSat1.x2$o[1].channel ber 1e-06
attr mutable ""
par MultiSeveralSatelliteSatUE_Standalone.gnbSat1.x2$o[1].channel per 0
attr mutable ""
par MultiSeveralSatelliteSatUE_Standalone.gnbSat3.x2$o[0].channel typename "\"simu5g.simulations.SatCom.networks.InterSatelliteLink\""
par MultiSeveralSatelliteSatUE_Standalone.gnbSat3.x2$o[0].channel disabled false
attr mutable ""
par MultiSeveralSatelliteSatUE_Standalone.gnbSat3.x2$o[0].channel delay 0.00641538s
attr mutable ""
attr unit s
par MultiSeveralSatelliteSatUE_Standalone.gnbSat3.x2$o[0].channel datarate 1e+10bps
attr mutable ""
attr unit bps
par MultiSeveralSatelliteSatUE_Standalone.gnbSat3.x2$o[0].channel ber 1e-06
attr mutable ""
par MultiSeveralSatelliteSatUE_Standalone.gnbSat3.x2$o[0].channel per 0
attr mutable ""
par MultiSeveralSatelliteSatUE_Standalone.gnbSat2.x2$o[1].channel typename "\"simu5g.simulations.SatCom.networks.InterSatelliteLink\""
par MultiSeveralSatelliteSatUE_Standalone.gnbSat2.x2$o[1].channel disabled false
attr mutable ""
par MultiSeveralSatelliteSatUE_Standalone.gnbSat2.x2$o[1].channel delay 0.00544595s
attr mutable ""
attr unit s
par MultiSeveralSatelliteSatUE_Standalone.gnbSat2.x2$o[1].channel datarate 1e+10bps
attr mutable ""
attr unit bps
par MultiSeveralSatelliteSatUE_Standalone.gnbSat2.x2$o[1].channel ber 1e-06
attr mutable ""
par MultiSeveralSatelliteSatUE_Standalone.gnbSat2.x2$o[1].channel per 0
attr mutable ""
par MultiSeveralSatelliteSatUE_Standalone.gnbSat3.x2$o[1].channel typename "\"simu5g.simulations.SatCom.networks.InterSatelliteLink\""
par MultiSeveralSatelliteSatUE_Standalone.gnbSat3.x2$o[1].channel disabled false
attr mutable ""
par MultiSeveralSatelliteSatUE_Standalone.gnbSat3.x2$o[1].channel delay 0.00691987s
attr mutable ""
attr unit s
par MultiSeveralSatelliteSatUE_Standalone.gnbSat3.x2$o[1].channel datarate 1e+10bps
attr mutable ""
attr unit bps
par MultiSeveralSatelliteSatUE_Standalone.gnbSat3.x2$o[1].channel ber 1e-06
attr mutable ""
par MultiSeveralSatelliteSatUE_Standalone.gnbSat3.x2$o[1].channel per 0
attr mutable ""
par MultiSeveralSatelliteSatUE_Standalone.channelControl typename "\"simu5g.world.radio.LteChannelControl\""
par MultiSeveralSatelliteSatUE_Standalone.channelControl coreDebug false
par MultiSeveralSatelliteSatUE_Standalone.channelControl pMax 20mW
attr unit mW
par MultiSeveralSatelliteSatUE_Standalone.channelControl sat -110dBm
attr unit dBm
par MultiSeveralSatelliteSatUE_Standalone.channelControl alpha 2
par MultiSeveralSatelliteSatUE_Standalone.channelControl carrierFrequency 2.4e+09Hz
attr unit Hz
par MultiSeveralSatelliteSatUE_Standalone.channelControl numChannels 1
par MultiSeveralSatelliteSatUE_Standalone.channelControl propagationModel "\"FreeSpaceModel\""
attr enum FreeSpaceModel,TwoRayGroundModel,RiceModel,RayleighModel,NakagamiModel,LogNormalShadowingModel
par MultiSeveralSatelliteSatUE_Standalone.routingRecorder typename "\"inet.networklayer.ipv4.RoutingTableRecorder\""
par MultiSeveralSatelliteSatUE_Standalone.routingRecorder enabled false
par MultiSeveralSatelliteSatUE_Standalone.configurator typename "\"inet.networklayer.configurator.ipv4.Ipv4NetworkConfigurator\""
par MultiSeveralSatelliteSatUE_Standalone.configurator minLinkWeight 0.001
par MultiSeveralSatelliteSatUE_Standalone.configurator configureIsolatedNetworksSeparatly false
par MultiSeveralSatelliteSatUE_Standalone.configurator config "<config>...</config> at /home/maller/git/Simu5G/simulations/SatCom/satellite_multicell_smart_handover//./demo.xml:1"
par MultiSeveralSatelliteSatUE_Standalone.configurator assignAddresses true
par MultiSeveralSatelliteSatUE_Standalone.configurator assignUniqueAddresses true
par MultiSeveralSatelliteSatUE_Standalone.configurator assignDisjunctSubnetAddresses true
par MultiSeveralSatelliteSatUE_Standalone.configurator addStaticRoutes true
par MultiSeveralSatelliteSatUE_Standalone.configurator addDefaultRoutes true
par MultiSeveralSatelliteSatUE_Standalone.configurator addSubnetRoutes true
par MultiSeveralSatelliteSatUE_Standalone.configurator addDirectRoutes true
par MultiSeveralSatelliteSatUE_Standalone.configurator optimizeRoutes true
par MultiSeveralSatelliteSatUE_Standalone.configurator dumpTopology false
par MultiSeveralSatelliteSatUE_Standalone.configurator dumpLinks false
par MultiSeveralSatelliteSatUE_Standalone.configurator dumpAddresses false
par MultiSeveralSatelliteSatUE_Standalone.configurator dumpRoutes false
par MultiSeveralSatelliteSatUE_Standalone.configurator dumpConfig "\"\""
par MultiSeveralSatelliteSatUE_Standalone.binder typename "\"simu5g.common.binder.Binder\""
par MultiSeveralSatelliteSatUE_Standalone.binder blerShift 5
par MultiSeveralSatelliteSatUE_Standalone.binder maxDataRatePerRb 1.16Mbps
attr unit Mbps
par MultiSeveralSatelliteSatUE_Standalone.binder printTrafficGeneratorConfig false
par MultiSeveralSatelliteSatUE_Standalone.carrierAggregation.componentCarrier[0] typename "\"simu5g.common.carrierAggregation.ComponentCarrier\""
par MultiSeveralSatelliteSatUE_Standalone.carrierAggregation.componentCarrier[0] carrierFrequency 2GHz
attr unit GHz
par MultiSeveralSatelliteSatUE_Standalone.carrierAggregation.componentCarrier[0] numBands 50
par MultiSeveralSatelliteSatUE_Standalone.carrierAggregation.componentCarrier[0] numerologyIndex 0
par MultiSeveralSatelliteSatUE_Standalone.carrierAggregation.componentCarrier[0] useTdd false
par MultiSeveralSatelliteSatUE_Standalone.carrierAggregation.componentCarrier[0] tddNumSymbolsDl 7
par MultiSeveralSatelliteSatUE_Standalone.carrierAggregation.componentCarrier[0] tddNumSymbolsUl 7
par MultiSeveralSatelliteSatUE_Standalone.carrierAggregation typename "\"simu5g.common.carrierAggregation.CarrierAggregation\""
par MultiSeveralSatelliteSatUE_Standalone.carrierAggregation numComponentCarriers 1
par MultiSeveralSatelliteSatUE_Standalone.server.pppg$i[0].channel typename "\"ned.IdealChannel\""
par MultiSeveralSatelliteSatUE_Standalone.server.ppp[0].phys$o.channel typename "\"ned.IdealChannel\""
par MultiSeveralSatelliteSatUE_Standalone.server.interfaceTable typename "\"inet.networklayer.common.InterfaceTable\""
par MultiSeveralSatelliteSatUE_Standalone.server.interfaceTable displayAddresses false
par MultiSeveralSatelliteSatUE_Standalone.server.cb typename "\"inet.common.MessageDispatcher\""
par MultiSeveralSatelliteSatUE_Standalone.server.cb displayStringTextFormat "\"processed %p pk (%l)\""
par MultiSeveralSatelliteSatUE_Standalone.server.cb forwardServiceRegistration true
par MultiSeveralSatelliteSatUE_Standalone.server.cb forwardProtocolRegistration true
par MultiSeveralSatelliteSatUE_Standalone.server.bl typename "\"inet.common.MessageDispatcher\""
par MultiSeveralSatelliteSatUE_Standalone.server.bl displayStringTextFormat "\"processed %p pk (%l)\""
par MultiSeveralSatelliteSatUE_Standalone.server.bl forwardServiceRegistration true
par MultiSeveralSatelliteSatUE_Standalone.server.bl forwardProtocolRegistration true
par MultiSeveralSatelliteSatUE_Standalone.server.li typename "\"inet.common.MessageDispatcher\""
par MultiSeveralSatelliteSatUE_Standalone.server.li displayStringTextFormat "\"processed %p pk (%l)\""
par MultiSeveralSatelliteSatUE_Standalone.server.li forwardServiceRegistration true
par MultiSeveralSatelliteSatUE_Standalone.server.li forwardProtocolRegistration true
par MultiSeveralSatelliteSatUE_Standalone.server.lo[0].upperLayerIn.channel typename "\"ned.IdealChannel\""
par MultiSeveralSatelliteSatUE_Standalone.server.lo[0].lo.upperLayerOut.channel typename "\"ned.IdealChannel\""
par MultiSeveralSatelliteSatUE_Standalone.server.lo[0].lo typename "\"inet.linklayer.loopback.Loopback\""
par MultiSeveralSatelliteSatUE_Standalone.server.lo[0].lo interfaceTableModule "\"MultiSeveralSatelliteSatUE_Standalone.server.interfaceTable\""
par MultiSeveralSatelliteSatUE_Standalone.server.lo[0].lo mtu 4470B
attr unit B
scalar MultiSeveralSatelliteSatUE_Standalone.server.lo[0].lo rcvdPkFromHl:count 0
attr interpolationmode none
attr recordingmode count
attr source packetReceivedFromUpper
attr title "packets received from higher layer, count"
scalar MultiSeveralSatelliteSatUE_Standalone.server.lo[0].lo rcvdPkFromHl:sum(packetBytes) 0
attr interpolationmode none
attr recordingmode sum(packetBytes)
attr source packetReceivedFromUpper
attr title "packets received from higher layer, sum(packetBytes)"
scalar MultiSeveralSatelliteSatUE_Standalone.server.lo[0].lo passedUpPk:count 0
attr interpolationmode none
attr recordingmode count
attr source packetSentToUpper
attr title "packets passed to higher layer, count"
scalar MultiSeveralSatelliteSatUE_Standalone.server.lo[0].lo passedUpPk:sum(packetBytes) 0
attr interpolationmode none
attr recordingmode sum(packetBytes)
attr source packetSentToUpper
attr title "packets passed to higher layer, sum(packetBytes)"
par MultiSeveralSatelliteSatUE_Standalone.server.lo[0] typename "\"inet.linklayer.loopback.LoopbackInterface\""
par MultiSeveralSatelliteSatUE_Standalone.server.lo[0] displayStringTextFormat "\"%a (%i)\\n%m\""
par MultiSeveralSatelliteSatUE_Standalone.server.lo[0] recordPcap false
par MultiSeveralSatelliteSatUE_Standalone.server.lo[0] numPcapRecorders 0
par MultiSeveralSatelliteSatUE_Standalone.server.lo[0] interfaceTableModule "\"MultiSeveralSatelliteSatUE_Standalone.server.interfaceTable\""
scalar MultiSeveralSatelliteSatUE_Standalone.server.lo[0] packetDropInterfaceDown:count 0
attr interpolationmode none
attr recordingmode count
attr source packetDropReasonIsInterfaceDown(packetDropped)
attr title "packet drops: interface down, count"
scalar MultiSeveralSatelliteSatUE_Standalone.server.lo[0] packetDropInterfaceDown:sum(packetBytes) 0
attr interpolationmode none
attr recordingmode sum(packetBytes)
attr source packetDropReasonIsInterfaceDown(packetDropped)
attr title "packet drops: interface down, sum(packetBytes)"
scalar MultiSeveralSatelliteSatUE_Standalone.server.lo[0] packetDropNoCarrier:count 0
attr interpolationmode none
attr recordingmode count
attr source packetDropReasonIsNoCarrier(packetDropped)
attr title "packet drops: no carrier, count"
scalar MultiSeveralSatelliteSatUE_Standalone.server.lo[0] packetDropNoCarrier:sum(packetBytes) 0
attr interpolationmode none
attr recordingmode sum(packetBytes)
attr source packetDropReasonIsNoCarrier(packetDropped)
attr title "packet drops: no carrier, sum(packetBytes)"
par MultiSeveralSatelliteSatUE_Standalone.server.ppp[0].phys$i.channel typename "\"ned.IdealChannel\""
par MultiSeveralSatelliteSatUE_Standalone.server.ppp[0].ppp.phys$o.channel typename "\"ned.IdealChannel\""
par MultiSeveralSatelliteSatUE_Standalone.server.ppp[0].ppp.upperLayerOut.channel typename "\"ned.IdealChannel\""
par MultiSeveralSatelliteSatUE_Standalone.server.ppp[0].upperLayerIn.channel typename "\"ned.IdealChannel\""
par MultiSeveralSatelliteSatUE_Standalone.server.ppp[0].queue typename "\"inet.queueing.queue.DropTailQueue\""
par MultiSeveralSatelliteSatUE_Standalone.server.ppp[0].queue displayStringTextFormat "\"contains %p pk (%l) pushed %u\\npulled %o removed %r dropped %d\""
par MultiSeveralSatelliteSatUE_Standalone.server.ppp[0].queue packetCapacity 10000
par MultiSeveralSatelliteSatUE_Standalone.server.ppp[0].queue dataCapacity -1b
attr unit b
par MultiSeveralSatelliteSatUE_Standalone.server.ppp[0].queue dropperClass "\"inet::queueing::PacketAtCollectionEndDropper\""
par MultiSeveralSatelliteSatUE_Standalone.server.ppp[0].queue comparatorClass "\"\""
par MultiSeveralSatelliteSatUE_Standalone.server.ppp[0].queue bufferModule "\"\""
scalar MultiSeveralSatelliteSatUE_Standalone.server.ppp[0].queue queueLength:last 0
attr autoWarmupFilter false
attr interpolationmode sample-hold
attr recordingmode last
attr source "warmup(atomic(constant0(packetPushEnded) + count(packetPushStarted) - count(packetPulled) - count(packetRemoved) - count(packetDropped)))"
attr title "queue length, last"
attr unit pk
scalar MultiSeveralSatelliteSatUE_Standalone.server.ppp[0].queue queueLength:max 0
attr autoWarmupFilter false
attr interpolationmode sample-hold
attr recordingmode max
attr source "warmup(atomic(constant0(packetPushEnded) + count(packetPushStarted) - count(packetPulled) - count(packetRemoved) - count(packetDropped)))"
attr title "queue length, max"
attr unit pk
scalar MultiSeveralSatelliteSatUE_Standalone.server.ppp[0].queue queueLength:timeavg 0
attr autoWarmupFilter false
attr interpolationmode sample-hold
attr recordingmode timeavg
attr source "warmup(atomic(constant0(packetPushEnded) + count(packetPushStarted) - count(packetPulled) - count(packetRemoved) - count(packetDropped)))"
attr title "queue length, timeavg"
attr unit pk
scalar MultiSeveralSatelliteSatUE_Standalone.server.ppp[0].queue queueBitLength:last 0
attr autoWarmupFilter false
attr interpolationmode sample-hold
attr recordingmode last
attr source "warmup(atomic(constant0(packetPushEnded) + sum(packetLength(packetPushStarted)) - sum(packetLength(packetPulled)) - sum(packetLength(packetRemoved)) - sum(packetLength(packetDropped))))"
attr title "queue bit length, last"
attr unit b
scalar MultiSeveralSatelliteSatUE_Standalone.server.ppp[0].queue queueBitLength:max 0
attr autoWarmupFilter false
attr interpolationmode sample-hold
attr recordingmode max
attr source "warmup(atomic(constant0(packetPushEnded) + sum(packetLength(packetPushStarted)) - sum(packetLength(packetPulled)) - sum(packetLength(packetRemoved)) - sum(packetLength(packetDropped))))"
attr title "queue bit length, max"
attr unit b
scalar MultiSeveralSatelliteSatUE_Standalone.server.ppp[0].queue queueBitLength:timeavg 0
attr autoWarmupFilter false
attr interpolationmode sample-hold
attr recordingmode timeavg
attr source "warmup(atomic(constant0(packetPushEnded) + sum(packetLength(packetPushStarted)) - sum(packetLength(packetPulled)) - sum(packetLength(packetRemoved)) - sum(packetLength(packetDropped))))"
attr title "queue bit length, timeavg"
attr unit b
statistic MultiSeveralSatelliteSatUE_Standalone.server.ppp[0].queue queueingTime:histogram
field count 10000
field mean 0
field stddev 0
field min 0
field max 0
field sum 0
field sqrsum 0
attr interpolationmode none
attr recordingmode histogram
attr source queueingTime(packetPulled)
attr title "queueing times"
attr unit s
bin	-inf	0
bin	-0.5	0
bin	-0.48	0
bin	-0.46	0
bin	-0.44	0
bin	-0.42	0
bin	-0.4	0
bin	-0.38	0
bin	-0.36	0
bin	-0.34	0
bin	-0.32	0
bin	-0.3	0
bin	-0.28	0
bin	-0.26	0
bin	-0.24	0
bin	-0.22	0
bin	-0.2	0
bin	-0.18	0
bin	-0.16	0
bin	-0.14	0
bin	-0.12	0
bin	-0.1	0
bin	-0.08	0
bin	-0.06	0
bin	-0.04	0
bin	-0.02	0
bin	0	10000
bin	0.02	0
bin	0.04	0
bin	0.06	0
bin	0.08	0
bin	0.1	0
bin	0.12	0
bin	0.14	0
bin	0.16	0
bin	0.18	0
bin	0.2	0
bin	0.22	0
bin	0.24	0
bin	0.26	0
bin	0.28	0
bin	0.3	0
bin	0.32	0
bin	0.34	0
bin	0.36	0
bin	0.38	0
bin	0.4	0
bin	0.42	0
bin	0.44	0
bin	0.46	0
bin	0.48	0
bin	0.5	0
scalar MultiSeveralSatelliteSatUE_Standalone.server.ppp[0].queue outgoingPackets:count 10000
attr recordingmode count
attr source packetPulled
attr title "outgoing packets, count"
attr unit pk
scalar MultiSeveralSatelliteSatUE_Standalone.server.ppp[0].queue outgoingPacketLengths:sum 10240000
attr interpolationmode none
attr recordingmode sum
attr source packetLength(packetPulled)
attr title "outgoing packet lengths, sum"
attr unit b
statistic MultiSeveralSatelliteSatUE_Standalone.server.ppp[0].queue outgoingPacketLengths:histogram
field count 10000
field mean 1024
field stddev 0
field min 1024
field max 1024
field sum 10240000
field sqrsum 10485760000
attr interpolationmode none
attr recordingmode histogram
attr source packetLength(packetPulled)
attr title "outgoing packet lengths"
attr unit b
bin	-inf	0
bin	1023	0
bin	1024	10000
bin	1025	0
statistic MultiSeveralSatelliteSatUE_Standalone.server.ppp[0].queue flowQueueingTime:histogram
field count 0
field mean -nan
field stddev -nan
field min -nan
field max -nan
field sum 0
field sqrsum 0
attr interpolationmode none
attr recordingmode histogram
attr source queueingTime(demuxFlow(packetPulled))
attr title "flow queueing times"
attr unit s
bin	-inf	0
bin	0	0
bin	1	0
scalar MultiSeveralSatelliteSatUE_Standalone.server.ppp[0].queue incomingPackets:count 10000
attr recordingmode count
attr source packetPushStarted
attr title "incoming packets, count"
attr unit pk
scalar MultiSeveralSatelliteSatUE_Standalone.server.ppp[0].queue incomingPacketLengths:sum 10240000
attr interpolationmode none
attr recordingmode sum
attr source packetLength(packetPushStarted)
attr title "incoming packet lengths, sum"
attr unit b
statistic MultiSeveralSatelliteSatUE_Standalone.server.ppp[0].queue incomingPacketLengths:histogram
field count 10000
field mean 1024
field stddev 0
field min 1024
field max 1024
field sum 10240000
field sqrsum 10485760000
attr interpolationmode none
attr recordingmode histogram
attr source packetLength(packetPushStarted)
attr title "incoming packet lengths"
attr unit b
bin	-inf	0
bin	1023	0
bin	1024	10000
bin	1025	0
scalar MultiSeveralSatelliteSatUE_Standalone.server.ppp[0].queue droppedPacketsQueueOverflow:count 0
attr interpolationmode none
attr recordingmode count
attr source packetDropReasonIsQueueOverflow(packetDropped)
attr title "dropped packets: queue overflow, count"
attr unit pk
scalar MultiSeveralSatelliteSatUE_Standalone.server.ppp[0].queue droppedPacketLengthsQueueOverflow:sum 0
attr interpolationmode none
attr recordingmode sum
attr source packetLength(packetDropReasonIsQueueOverflow(packetDropped))
attr title "dropped packet lengths: queue overflow, sum"
attr unit b
par MultiSeveralSatelliteSatUE_Standalone.server.ppp[0].ppp typename "\"inet.linklayer.ppp.Ppp\""
par MultiSeveralSatelliteSatUE_Standalone.server.ppp[0].ppp interfaceTableModule "\"MultiSeveralSatelliteSatUE_Standalone.server.interfaceTable\""
par MultiSeveralSatelliteSatUE_Standalone.server.ppp[0].ppp displayStringTextFormat "\"rate: %b\\nsent: %s, rcvd: %r\\nqueue: %q, drop: %d\""
par MultiSeveralSatelliteSatUE_Standalone.server.ppp[0].ppp sendRawBytes false
par MultiSeveralSatelliteSatUE_Standalone.server.ppp[0].ppp mtu 4470B
attr unit B
par MultiSeveralSatelliteSatUE_Standalone.server.ppp[0].ppp stopOperationExtraTime -1s
attr unit s
par MultiSeveralSatelliteSatUE_Standalone.server.ppp[0].ppp stopOperationTimeout 2s
attr unit s
scalar MultiSeveralSatelliteSatUE_Standalone.server.ppp[0].ppp transmissionState:timeavg 5.3999999999993e-05
attr interpolationmode sample-hold
attr recordingmode timeavg
attr source transmissionStateChanged
attr title "tx state, timeavg"
scalar MultiSeveralSatelliteSatUE_Standalone.server.ppp[0].ppp rxPkOk:count 0
attr interpolationmode none
attr recordingmode count
attr source rxPkOk
attr title "packets received OK, count"
scalar MultiSeveralSatelliteSatUE_Standalone.server.ppp[0].ppp rxPkOk:sum(packetBytes) 0
attr interpolationmode none
attr recordingmode sum(packetBytes)
attr source rxPkOk
attr title "packets received OK, sum(packetBytes)"
scalar MultiSeveralSatelliteSatUE_Standalone.server.ppp[0].ppp txPk:count 10000
attr interpolationmode none
attr recordingmode count
attr source packetSentToLower
attr title "packets transmitted, count"
scalar MultiSeveralSatelliteSatUE_Standalone.server.ppp[0].ppp txPk:sum(packetBytes) 1350000
attr interpolationmode none
attr recordingmode sum(packetBytes)
attr source packetSentToLower
attr title "packets transmitted, sum(packetBytes)"
scalar MultiSeveralSatelliteSatUE_Standalone.server.ppp[0].ppp rcvdPkFromHl:count 10000
attr interpolationmode none
attr recordingmode count
attr source packetReceivedFromUpper
attr title "packets received from higher layer, count"
scalar MultiSeveralSatelliteSatUE_Standalone.server.ppp[0].ppp rcvdPkFromHl:sum(packetBytes) 1280000
attr interpolationmode none
attr recordingmode sum(packetBytes)
attr source packetReceivedFromUpper
attr title "packets received from higher layer, sum(packetBytes)"
scalar MultiSeveralSatelliteSatUE_Standalone.server.ppp[0].ppp passedUpPk:count 0
attr interpolationmode none
attr recordingmode count
attr source packetSentToUpper
attr title "packets passed to higher layer, count"
scalar MultiSeveralSatelliteSatUE_Standalone.server.ppp[0].ppp passedUpPk:sum(packetBytes) 0
attr interpolationmode none
attr recordingmode sum(packetBytes)
attr source packetSentToUpper
attr title "packets passed to higher layer, sum(packetBytes)"
scalar MultiSeveralSatelliteSatUE_Standalone.server.ppp[0].ppp packetDropIncorrectlyReceived:count 0
attr interpolationmode none
attr recordingmode count
attr source packetDropReasonIsIncorrectlyReceived(packetDropped)
attr title "packet drop: incorrectly received, count"
scalar MultiSeveralSatelliteSatUE_Standalone.server.ppp[0].ppp packetDropIncorrectlyReceived:sum(packetBytes) 0
attr interpolationmode none
attr recordingmode sum(packetBytes)
attr source packetDropReasonIsIncorrectlyReceived(packetDropped)
attr title "packet drop: incorrectly received, sum(packetBytes)"
scalar MultiSeveralSatelliteSatUE_Standalone.server.ppp[0].ppp packetDropInterfaceDown:count 0
attr interpolationmode none
attr recordingmode count
attr source packetDropReasonIsInterfaceDown(packetDropped)
attr title "packet drop: interface down, count"
scalar MultiSeveralSatelliteSatUE_Standalone.server.ppp[0].ppp packetDropInterfaceDown:sum(packetBytes) 0
attr interpolationmode none
attr recordingmode sum(packetBytes)
attr source packetDropReasonIsInterfaceDown(packetDropped)
attr title "packet drop: interface down, sum(packetBytes)"
par MultiSeveralSatelliteSatUE_Standalone.server.ppp[0] typename "\"inet.linklayer.ppp.PppInterface\""
par MultiSeveralSatelliteSatUE_Standalone.server.ppp[0] displayStringTextFormat "\"%a (%i)\\n%m\""
par MultiSeveralSatelliteSatUE_Standalone.server.ppp[0] recordPcap false
par MultiSeveralSatelliteSatUE_Standalone.server.ppp[0] numPcapRecorders 0
par MultiSeveralSatelliteSatUE_Standalone.server.ppp[0] interfaceTableModule "\"MultiSeveralSatelliteSatUE_Standalone.server.interfaceTable\""
scalar MultiSeveralSatelliteSatUE_Standalone.server.ppp[0] packetDropInterfaceDown:count 0
attr interpolationmode none
attr recordingmode count
attr source packetDropReasonIsInterfaceDown(packetDropped)
attr title "packet drops: interface down, count"
scalar MultiSeveralSatelliteSatUE_Standalone.server.ppp[0] packetDropInterfaceDown:sum(packetBytes) 0
attr interpolationmode none
attr recordingmode sum(packetBytes)
attr source packetDropReasonIsInterfaceDown(packetDropped)
attr title "packet drops: interface down, sum(packetBytes)"
scalar MultiSeveralSatelliteSatUE_Standalone.server.ppp[0] packetDropNoCarrier:count 0
attr interpolationmode none
attr recordingmode count
attr source packetDropReasonIsNoCarrier(packetDropped)
attr title "packet drops: no carrier, count"
scalar MultiSeveralSatelliteSatUE_Standalone.server.ppp[0] packetDropNoCarrier:sum(packetBytes) 0
attr interpolationmode none
attr recordingmode sum(packetBytes)
attr source packetDropReasonIsNoCarrier(packetDropped)
attr title "packet drops: no carrier, sum(packetBytes)"
par MultiSeveralSatelliteSatUE_Standalone.server.ipv4.transportIn.channel typename "\"ned.IdealChannel\""
par MultiSeveralSatelliteSatUE_Standalone.server.ipv4.up.out[0].channel typename "\"ned.IdealChannel\""
par MultiSeveralSatelliteSatUE_Standalone.server.ipv4.lp.out[2].channel typename "\"ned.IdealChannel\""
par MultiSeveralSatelliteSatUE_Standalone.server.ipv4.ifIn.channel typename "\"ned.IdealChannel\""
par MultiSeveralSatelliteSatUE_Standalone.server.ipv4.configurator typename "\"inet.networklayer.configurator.ipv4.Ipv4NodeConfigurator\""
par MultiSeveralSatelliteSatUE_Standalone.server.ipv4.configurator interfaceTableModule "\"MultiSeveralSatelliteSatUE_Standalone.server.interfaceTable\""
par MultiSeveralSatelliteSatUE_Standalone.server.ipv4.configurator routingTableModule "\"MultiSeveralSatelliteSatUE_Standalone.server.ipv4.routingTable\""
par MultiSeveralSatelliteSatUE_Standalone.server.ipv4.configurator networkConfiguratorModule "\"configurator\""
par MultiSeveralSatelliteSatUE_Standalone.server.ipv4.configurator configureRoutingTable true
par MultiSeveralSatelliteSatUE_Standalone.server.ipv4.routingTable typename "\"inet.networklayer.ipv4.Ipv4RoutingTable\""
par MultiSeveralSatelliteSatUE_Standalone.server.ipv4.routingTable interfaceTableModule "\"MultiSeveralSatelliteSatUE_Standalone.server.interfaceTable\""
par MultiSeveralSatelliteSatUE_Standalone.server.ipv4.routingTable routerId "\"auto\""
par MultiSeveralSatelliteSatUE_Standalone.server.ipv4.routingTable netmaskRoutes "\"*\""
par MultiSeveralSatelliteSatUE_Standalone.server.ipv4.routingTable forwarding false
par MultiSeveralSatelliteSatUE_Standalone.server.ipv4.routingTable multicastForwarding false
par MultiSeveralSatelliteSatUE_Standalone.server.ipv4.routingTable useAdminDist false
par MultiSeveralSatelliteSatUE_Standalone.server.ipv4.routingTable routingFile "\"\""
par MultiSeveralSatelliteSatUE_Standalone.server.ipv4.natTable typename "\"inet.networklayer.ipv4.Ipv4NatTable\""
par MultiSeveralSatelliteSatUE_Standalone.server.ipv4.natTable networkProtocolModule "\"^.ip\""
par MultiSeveralSatelliteSatUE_Standalone.server.ipv4.natTable config "<config/> at content:1"
par MultiSeveralSatelliteSatUE_Standalone.server.ipv4.up typename "\"inet.common.MessageDispatcher\""
par MultiSeveralSatelliteSatUE_Standalone.server.ipv4.up displayStringTextFormat "\"processed %p pk (%l)\""
par MultiSeveralSatelliteSatUE_Standalone.server.ipv4.up forwardServiceRegistration true
par MultiSeveralSatelliteSatUE_Standalone.server.ipv4.up forwardProtocolRegistration true
par MultiSeveralSatelliteSatUE_Standalone.server.ipv4.igmp typename "\"inet.networklayer.ipv4.Igmpv2\""
par MultiSeveralSatelliteSatUE_Standalone.server.ipv4.igmp interfaceTableModule "\"MultiSeveralSatelliteSatUE_Standalone.server.interfaceTable\""
par MultiSeveralSatelliteSatUE_Standalone.server.ipv4.igmp routingTableModule "\"MultiSeveralSatelliteSatUE_Standalone.server.ipv4.routingTable\""
par MultiSeveralSatelliteSatUE_Standalone.server.ipv4.igmp crcMode "\"declared\""
attr enum declared,computed
par MultiSeveralSatelliteSatUE_Standalone.server.ipv4.igmp enabled true
par MultiSeveralSatelliteSatUE_Standalone.server.ipv4.igmp robustnessVariable 2
par MultiSeveralSatelliteSatUE_Standalone.server.ipv4.igmp queryInterval 125s
attr unit s
par MultiSeveralSatelliteSatUE_Standalone.server.ipv4.igmp queryResponseInterval 10s
attr unit s
par MultiSeveralSatelliteSatUE_Standalone.server.ipv4.igmp groupMembershipInterval 260s
attr unit s
par MultiSeveralSatelliteSatUE_Standalone.server.ipv4.igmp otherQuerierPresentInterval 255s
attr unit s
par MultiSeveralSatelliteSatUE_Standalone.server.ipv4.igmp startupQueryInterval 31.25s
attr unit s
par MultiSeveralSatelliteSatUE_Standalone.server.ipv4.igmp startupQueryCount 2
par MultiSeveralSatelliteSatUE_Standalone.server.ipv4.igmp lastMemberQueryInterval 1s
attr unit s
par MultiSeveralSatelliteSatUE_Standalone.server.ipv4.igmp lastMemberQueryCount 2
par MultiSeveralSatelliteSatUE_Standalone.server.ipv4.igmp unsolicitedReportInterval 10s
attr unit s
par MultiSeveralSatelliteSatUE_Standalone.server.ipv4.icmp typename "\"inet.networklayer.ipv4.Icmp\""
par MultiSeveralSatelliteSatUE_Standalone.server.ipv4.icmp interfaceTableModule "\"MultiSeveralSatelliteSatUE_Standalone.server.interfaceTable\""
par MultiSeveralSatelliteSatUE_Standalone.server.ipv4.icmp routingTableModule "\"MultiSeveralSatelliteSatUE_Standalone.server.ipv4.routingTable\""
par MultiSeveralSatelliteSatUE_Standalone.server.ipv4.icmp crcMode "\"declared\""
attr enum declared,computed
attr mutable ""
par MultiSeveralSatelliteSatUE_Standalone.server.ipv4.icmp quoteLength 8B
attr mutable ""
attr unit B
par MultiSeveralSatelliteSatUE_Standalone.server.ipv4.mp typename "\"inet.common.MessageDispatcher\""
par MultiSeveralSatelliteSatUE_Standalone.server.ipv4.mp displayStringTextFormat "\"processed %p pk (%l)\""
par MultiSeveralSatelliteSatUE_Standalone.server.ipv4.mp forwardServiceRegistration true
par MultiSeveralSatelliteSatUE_Standalone.server.ipv4.mp forwardProtocolRegistration true
par MultiSeveralSatelliteSatUE_Standalone.server.ipv4.ip typename "\"inet.networklayer.ipv4.Ipv4\""
par MultiSeveralSatelliteSatUE_Standalone.server.ipv4.ip interfaceTableModule "\"MultiSeveralSatelliteSatUE_Standalone.server.interfaceTable\""
par MultiSeveralSatelliteSatUE_Standalone.server.ipv4.ip routingTableModule "\"MultiSeveralSatelliteSatUE_Standalone.server.ipv4.routingTable\""
par MultiSeveralSatelliteSatUE_Standalone.server.ipv4.ip arpModule "\"MultiSeveralSatelliteSatUE_Standalone.server.ipv4.arp\""
par MultiSeveralSatelliteSatUE_Standalone.server.ipv4.ip icmpModule "\"MultiSeveralSatelliteSatUE_Standalone.server.ipv4.icmp\""
par MultiSeveralSatelliteSatUE_Standalone.server.ipv4.ip crcMode "\"declared\""
attr enum declared,computed
par MultiSeveralSatelliteSatUE_Standalone.server.ipv4.ip timeToLive 32
par MultiSeveralSatelliteSatUE_Standalone.server.ipv4.ip multicastTimeToLive 32
par MultiSeveralSatelliteSatUE_Standalone.server.ipv4.ip fragmentTimeout 60s
attr unit s
par MultiSeveralSatelliteSatUE_Standalone.server.ipv4.ip limitedBroadcast false
par MultiSeveralSatelliteSatUE_Standalone.server.ipv4.ip directBroadcastInterfaces "\"\""
scalar MultiSeveralSatelliteSatUE_Standalone.server.ipv4.ip packetDropAddressResolutionFailed:count 0
attr interpolationmode none
attr recordingmode count
attr source packetDropReasonIsAddressResolutionFailed(packetDropped)
attr title "packet drop: address resolution failed, count"
scalar MultiSeveralSatelliteSatUE_Standalone.server.ipv4.ip packetDropAddressResolutionFailed:sum(packetBytes) 0
attr interpolationmode none
attr recordingmode sum(packetBytes)
attr source packetDropReasonIsAddressResolutionFailed(packetDropped)
attr title "packet drop: address resolution failed, sum(packetBytes)"
scalar MultiSeveralSatelliteSatUE_Standalone.server.ipv4.ip packetDropHopLimitReached:count 0
attr interpolationmode none
attr recordingmode count
attr source packetDropReasonIsHopLimitReached(packetDropped)
attr title "packet drop: hop limit reached, count"
scalar MultiSeveralSatelliteSatUE_Standalone.server.ipv4.ip packetDropHopLimitReached:sum(packetBytes) 0
attr interpolationmode none
attr recordingmode sum(packetBytes)
attr source packetDropReasonIsHopLimitReached(packetDropped)
attr title "packet drop: hop limit reached, sum(packetBytes)"
scalar MultiSeveralSatelliteSatUE_Standalone.server.ipv4.ip packetDropForwardingDisabled:count 0
attr interpolationmode none
attr recordingmode count
attr source packetDropReasonIsForwardingDisabled(packetDropped)
attr title "packet drop: forwarding disabled, count"
scalar MultiSeveralSatelliteSatUE_Standalone.server.ipv4.ip packetDropForwardingDisabled:sum(packetBytes) 0
attr interpolationmode none
attr recordingmode sum(packetBytes)
attr source packetDropReasonIsForwardingDisabled(packetDropped)
attr title "packet drop: forwarding disabled, sum(packetBytes)"
scalar MultiSeveralSatelliteSatUE_Standalone.server.ipv4.ip packetDropNoInterfaceFound:count 0
attr interpolationmode none
attr recordingmode count
attr source packetDropReasonIsNoInterfaceFound(packetDropped)
attr title "packet drop: no interface found, count"
scalar MultiSeveralSatelliteSatUE_Standalone.server.ipv4.ip packetDropNoInterfaceFound:sum(packetBytes) 0
attr interpolationmode none
attr recordingmode sum(packetBytes)
attr source packetDropReasonIsNoInterfaceFound(packetDropped)
attr title "packet drop: no interface found, sum(packetBytes)"
scalar MultiSeveralSatelliteSatUE_Standalone.server.ipv4.ip packetDropNoRouteFound:count 0
attr interpolationmode none
attr recordingmode count
attr source packetDropReasonIsNoRouteFound(packetDropped)
attr title "packet drop: no route found, count"
scalar MultiSeveralSatelliteSatUE_Standalone.server.ipv4.ip packetDropNoRouteFound:sum(packetBytes) 0
attr interpolationmode none
attr recordingmode sum(packetBytes)
attr source packetDropReasonIsNoRouteFound(packetDropped)
attr title "packet drop: no route found, sum(packetBytes)"
scalar MultiSeveralSatelliteSatUE_Standalone.server.ipv4.ip packetDropUndefined:count 0
attr interpolationmode none
attr recordingmode count
attr source packetDropReasonIsUndefined(packetDropped)
attr title "packet drop: undefined, count"
scalar MultiSeveralSatelliteSatUE_Standalone.server.ipv4.ip packetDropUndefined:sum(packetBytes) 0
attr interpolationmode none
attr recordingmode sum(packetBytes)
attr source packetDropReasonIsUndefined(packetDropped)
attr title "packet drop: undefined, sum(packetBytes)"
par MultiSeveralSatelliteSatUE_Standalone.server.ipv4.arp typename "\"inet.networklayer.arp.ipv4.Arp\""
par MultiSeveralSatelliteSatUE_Standalone.server.ipv4.arp interfaceTableModule "\"MultiSeveralSatelliteSatUE_Standalone.server.interfaceTable\""
par MultiSeveralSatelliteSatUE_Standalone.server.ipv4.arp routingTableModule "\"MultiSeveralSatelliteSatUE_Standalone.server.ipv4.routingTable\""
par MultiSeveralSatelliteSatUE_Standalone.server.ipv4.arp retryTimeout 1s
attr unit s
par MultiSeveralSatelliteSatUE_Standalone.server.ipv4.arp retryCount 3
par MultiSeveralSatelliteSatUE_Standalone.server.ipv4.arp cacheTimeout 120s
attr unit s
par MultiSeveralSatelliteSatUE_Standalone.server.ipv4.arp proxyArpInterfaces "\"\""
scalar MultiSeveralSatelliteSatUE_Standalone.server.ipv4.arp arpResolutionFailed:count 0
attr recordingmode count
attr title "ARP failed resolutions, count"
scalar MultiSeveralSatelliteSatUE_Standalone.server.ipv4.arp arpResolutionCompleted:count 0
attr recordingmode count
attr title "ARP completed resolutions, count"
scalar MultiSeveralSatelliteSatUE_Standalone.server.ipv4.arp arpResolutionInitiated:count 0
attr recordingmode count
attr title "ARP initiated resolutions, count"
scalar MultiSeveralSatelliteSatUE_Standalone.server.ipv4.arp arpReplySent:count 0
attr recordingmode count
attr source arpReplySent
attr title "ARP replies sent, count"
scalar MultiSeveralSatelliteSatUE_Standalone.server.ipv4.arp arpReplySent:sum(packetBytes) 0
attr recordingmode sum(packetBytes)
attr source arpReplySent
attr title "ARP replies sent, sum(packetBytes)"
scalar MultiSeveralSatelliteSatUE_Standalone.server.ipv4.arp arpRequestSent:count 0
attr recordingmode count
attr source arpRequestSent
attr title "ARP request sent, count"
scalar MultiSeveralSatelliteSatUE_Standalone.server.ipv4.arp arpRequestSent:sum(packetBytes) 0
attr recordingmode sum(packetBytes)
attr source arpRequestSent
attr title "ARP request sent, sum(packetBytes)"
par MultiSeveralSatelliteSatUE_Standalone.server.ipv4.lp typename "\"inet.common.MessageDispatcher\""
par MultiSeveralSatelliteSatUE_Standalone.server.ipv4.lp displayStringTextFormat "\"processed %p pk (%l)\""
par MultiSeveralSatelliteSatUE_Standalone.server.ipv4.lp forwardServiceRegistration true
par MultiSeveralSatelliteSatUE_Standalone.server.ipv4.lp forwardProtocolRegistration true
par MultiSeveralSatelliteSatUE_Standalone.server.ipv4 typename "\"inet.networklayer.ipv4.Ipv4NetworkLayer\""
par MultiSeveralSatelliteSatUE_Standalone.server.ipv4 forwarding false
par MultiSeveralSatelliteSatUE_Standalone.server.ipv4 multicastForwarding false
par MultiSeveralSatelliteSatUE_Standalone.server.ipv4 interfaceTableModule "\"MultiSeveralSatelliteSatUE_Standalone.server.interfaceTable\""
par MultiSeveralSatelliteSatUE_Standalone.server.ipv4 displayStringTextFormat "\"%i\""
par MultiSeveralSatelliteSatUE_Standalone.server.nl typename "\"inet.common.MessageDispatcher\""
par MultiSeveralSatelliteSatUE_Standalone.server.nl displayStringTextFormat "\"processed %p pk (%l)\""
par MultiSeveralSatelliteSatUE_Standalone.server.nl forwardServiceRegistration true
par MultiSeveralSatelliteSatUE_Standalone.server.nl forwardProtocolRegistration true
par MultiSeveralSatelliteSatUE_Standalone.server.udp typename "\"inet.transportlayer.udp.Udp\""
par MultiSeveralSatelliteSatUE_Standalone.server.udp interfaceTableModule "\"MultiSeveralSatelliteSatUE_Standalone.server.interfaceTable\""
par MultiSeveralSatelliteSatUE_Standalone.server.udp icmpModule "\"^.ipv4.icmp\""
par MultiSeveralSatelliteSatUE_Standalone.server.udp icmpv6Module "\"^.ipv6.icmpv6\""
par MultiSeveralSatelliteSatUE_Standalone.server.udp crcMode "\"declared\""
attr enum disabled,declared,computed
par MultiSeveralSatelliteSatUE_Standalone.server.udp defaultMulticastLoop true
scalar MultiSeveralSatelliteSatUE_Standalone.server.udp packetReceived:count 0
attr interpolationmode none
attr recordingmode count
attr source packetReceived
attr title "packets received, count"
scalar MultiSeveralSatelliteSatUE_Standalone.server.udp packetReceived:sum(packetBytes) 0
attr interpolationmode none
attr recordingmode sum(packetBytes)
attr source packetReceived
attr title "packets received, sum(packetBytes)"
scalar MultiSeveralSatelliteSatUE_Standalone.server.udp packetSent:count 10000
attr interpolationmode none
attr recordingmode count
attr source packetSent
attr title "packets sent, count"
scalar MultiSeveralSatelliteSatUE_Standalone.server.udp packetSent:sum(packetBytes) 1080000
attr interpolationmode none
attr recordingmode sum(packetBytes)
attr source packetSent
attr title "packets sent, sum(packetBytes)"
scalar MultiSeveralSatelliteSatUE_Standalone.server.udp passedUpPk:count 0
attr interpolationmode none
attr recordingmode count
attr source packetSentToUpper
attr title "packets passed up, count"
scalar MultiSeveralSatelliteSatUE_Standalone.server.udp droppedPkWrongPort:count 0
attr interpolationmode none
attr recordingmode count
attr source packetDropReasonIsNoPortFound(packetDropped)
attr title "packets dropped (wrong port), count"
scalar MultiSeveralSatelliteSatUE_Standalone.server.udp droppedPkBadChecksum:count 0
attr interpolationmode none
attr recordingmode count
attr source packetDropReasonIsIncorrectlyReceived(packetDropped)
attr title "packets dropped (checksum error), count"
par MultiSeveralSatelliteSatUE_Standalone.server.tcp typename "\"inet.transportlayer.tcp.Tcp\""
par MultiSeveralSatelliteSatUE_Standalone.server.tcp crcMode "\"declared\""
attr enum declared,computed
par MultiSeveralSatelliteSatUE_Standalone.server.tcp advertisedWindow 7504
par MultiSeveralSatelliteSatUE_Standalone.server.tcp delayedAcksEnabled false
par MultiSeveralSatelliteSatUE_Standalone.server.tcp nagleEnabled true
par MultiSeveralSatelliteSatUE_Standalone.server.tcp limitedTransmitEnabled false
par MultiSeveralSatelliteSatUE_Standalone.server.tcp increasedIWEnabled false
par MultiSeveralSatelliteSatUE_Standalone.server.tcp sackSupport false
par MultiSeveralSatelliteSatUE_Standalone.server.tcp windowScalingSupport false
par MultiSeveralSatelliteSatUE_Standalone.server.tcp windowScalingFactor -1
par MultiSeveralSatelliteSatUE_Standalone.server.tcp timestampSupport false
par MultiSeveralSatelliteSatUE_Standalone.server.tcp mss 536
par MultiSeveralSatelliteSatUE_Standalone.server.tcp msl 120s
attr unit s
par MultiSeveralSatelliteSatUE_Standalone.server.tcp tcpAlgorithmClass "\"TcpReno\""
attr enum TcpVegas,TcpWestwood,TcpNewReno,TcpReno,TcpTahoe,TcpNoCongestionControl
par MultiSeveralSatelliteSatUE_Standalone.server.tcp useDataNotification false
par MultiSeveralSatelliteSatUE_Standalone.server.tcp dupthresh 3
par MultiSeveralSatelliteSatUE_Standalone.server.tcp initialSsthresh 4294967295
par MultiSeveralSatelliteSatUE_Standalone.server.tcp stopOperationExtraTime 0s
attr unit s
par MultiSeveralSatelliteSatUE_Standalone.server.tcp stopOperationTimeout 2s
attr unit s
par MultiSeveralSatelliteSatUE_Standalone.server.tcp ecnWillingness false
par MultiSeveralSatelliteSatUE_Standalone.server.tcp dctcpGamma 0.0625
par MultiSeveralSatelliteSatUE_Standalone.server.tn typename "\"inet.common.MessageDispatcher\""
par MultiSeveralSatelliteSatUE_Standalone.server.tn displayStringTextFormat "\"processed %p pk (%l)\""
par MultiSeveralSatelliteSatUE_Standalone.server.tn forwardServiceRegistration true
par MultiSeveralSatelliteSatUE_Standalone.server.tn forwardProtocolRegistration true
par MultiSeveralSatelliteSatUE_Standalone.server.app[0] typename "\"simu5g.apps.cbr.CbrSender\""
par MultiSeveralSatelliteSatUE_Standalone.server.app[0] localPort 3088
par MultiSeveralSatelliteSatUE_Standalone.server.app[0] destPort 3000
par MultiSeveralSatelliteSatUE_Standalone.server.app[0] destAddress "\"ue[0]\""
par MultiSeveralSatelliteSatUE_Standalone.server.app[0] PacketSize 100
par MultiSeveralSatelliteSatUE_Standalone.server.app[0] sampling_time 0.02s
attr unit s
par MultiSeveralSatelliteSatUE_Standalone.server.app[0] startTime 0.00263194s
attr unit s
par MultiSeveralSatelliteSatUE_Standalone.server.app[0] finishTime 40s
attr unit s
par MultiSeveralSatelliteSatUE_Standalone.server.app[0] tos -1
scalar MultiSeveralSatelliteSatUE_Standalone.server.app[0] cbrGeneratedBytes:timeavg 100
attr recordingmode timeavg
attr source cbrGeneratedBytesSignal
attr title "Bytes generated by the application, timeavg"
attr unit Bps
scalar MultiSeveralSatelliteSatUE_Standalone.server.app[0] cbrGeneratedBytes:mean 100
attr recordingmode mean
attr source cbrGeneratedBytesSignal
attr title "Bytes generated by the application, mean"
attr unit Bps
scalar MultiSeveralSatelliteSatUE_Standalone.server.app[0] cbrGeneratedBytes:last(sumPerDuration) 5004.3457896452
attr recordingmode last(sumPerDuration)
attr source cbrGeneratedBytesSignal
attr title "Bytes generated by the application, last(sumPerDuration)"
attr unit Bps
scalar MultiSeveralSatelliteSatUE_Standalone.server.app[0] cbrGeneratedBytes:sum 100000
attr recordingmode sum
attr source cbrGeneratedBytesSignal
attr title "Bytes generated by the application, sum"
attr unit Bps
scalar MultiSeveralSatelliteSatUE_Standalone.server.app[0] cbrGeneratedThroughtput:timeavg -nan
attr recordingmode timeavg
attr source cbrGeneratedThroughtputSignal
attr title "Throughput generated by the application, timeavg"
attr unit Bps
scalar MultiSeveralSatelliteSatUE_Standalone.server.app[0] cbrGeneratedThroughtput:mean 5000
attr recordingmode mean
attr source cbrGeneratedThroughtputSignal
attr title "Throughput generated by the application, mean"
attr unit Bps
scalar MultiSeveralSatelliteSatUE_Standalone.server.app[0] cbrGeneratedThroughtput:last(sumPerDuration) 250
attr recordingmode last(sumPerDuration)
attr source cbrGeneratedThroughtputSignal
attr title "Throughput generated by the application, last(sumPerDuration)"
attr unit Bps
scalar MultiSeveralSatelliteSatUE_Standalone.server.app[0] cbrGeneratedThroughtput:sum 5000
attr recordingmode sum
attr source cbrGeneratedThroughtputSignal
attr title "Throughput generated by the application, sum"
attr unit Bps
par MultiSeveralSatelliteSatUE_Standalone.server.app[1] typename "\"simu5g.apps.cbr.CbrSender\""
par MultiSeveralSatelliteSatUE_Standalone.server.app[1] localPort 3089
par MultiSeveralSatelliteSatUE_Standalone.server.app[1] destPort 3000
par MultiSeveralSatelliteSatUE_Standalone.server.app[1] destAddress "\"ue[1]\""
par MultiSeveralSatelliteSatUE_Standalone.server.app[1] PacketSize 100
par MultiSeveralSatelliteSatUE_Standalone.server.app[1] sampling_time 0.02s
attr unit s
par MultiSeveralSatelliteSatUE_Standalone.server.app[1] startTime 0.00536346s
attr unit s
par MultiSeveralSatelliteSatUE_Standalone.server.app[1] finishTime 40s
attr unit s
par MultiSeveralSatelliteSatUE_Standalone.server.app[1] tos -1
scalar MultiSeveralSatelliteSatUE_Standalone.server.app[1] cbrGeneratedBytes:timeavg 100
attr recordingmode timeavg
attr source cbrGeneratedBytesSignal
attr title "Bytes generated by the application, timeavg"
attr unit Bps
scalar MultiSeveralSatelliteSatUE_Standalone.server.app[1] cbrGeneratedBytes:mean 100
attr recordingmode mean
attr source cbrGeneratedBytesSignal
attr title "Bytes generated by the application, mean"
attr unit Bps
scalar MultiSeveralSatelliteSatUE_Standalone.server.app[1] cbrGeneratedBytes:last(sumPerDuration) 5003.6618142934
attr recordingmode last(sumPerDuration)
attr source cbrGeneratedBytesSignal
attr title "Bytes generated by the application, last(sumPerDuration)"
attr unit Bps
scalar MultiSeveralSatelliteSatUE_Standalone.server.app[1] cbrGeneratedBytes:sum 100000
attr recordingmode sum
attr source cbrGeneratedBytesSignal
attr title "Bytes generated by the application, sum"
attr unit Bps
scalar MultiSeveralSatelliteSatUE_Standalone.server.app[1] cbrGeneratedThroughtput:timeavg -nan
attr recordingmode timeavg
attr source cbrGeneratedThroughtputSignal
attr title "Throughput generated by the application, timeavg"
attr unit Bps
scalar MultiSeveralSatelliteSatUE_Standalone.server.app[1] cbrGeneratedThroughtput:mean 5000
attr recordingmode mean
attr source cbrGeneratedThroughtputSignal
attr title "Throughput generated by the application, mean"
attr unit Bps
scalar MultiSeveralSatelliteSatUE_Standalone.server.app[1] cbrGeneratedThroughtput:last(sumPerDuration) 250
attr recordingmode last(sumPerDuration)
attr source cbrGeneratedThroughtputSignal
attr title "Throughput generated by the application, last(sumPerDuration)"
attr unit Bps
scalar MultiSeveralSatelliteSatUE_Standalone.server.app[1] cbrGeneratedThroughtput:sum 5000
attr recordingmode sum
attr source cbrGeneratedThroughtputSignal
attr title "Throughput generated by the application, sum"
attr unit Bps
par MultiSeveralSatelliteSatUE_Standalone.server.app[2] typename "\"simu5g.apps.cbr.CbrSender\""
par MultiSeveralSatelliteSatUE_Standalone.server.app[2] localPort 3090
par MultiSeveralSatelliteSatUE_Standalone.server.app[2] destPort 3000
par MultiSeveralSatelliteSatUE_Standalone.server.app[2] destAddress "\"ue[2]\""
par MultiSeveralSatelliteSatUE_Standalone.server.app[2] PacketSize 100
par MultiSeveralSatelliteSatUE_Standalone.server.app[2] sampling_time 0.02s
attr unit s
par MultiSeveralSatelliteSatUE_Standalone.server.app[2] startTime 0.000784211s
attr unit s
par MultiSeveralSatelliteSatUE_Standalone.server.app[2] finishTime 40s
attr unit s
par MultiSeveralSatelliteSatUE_Standalone.server.app[2] tos -1
scalar MultiSeveralSatelliteSatUE_Standalone.server.app[2] cbrGeneratedBytes:timeavg 100
attr recordingmode timeavg
attr source cbrGeneratedBytesSignal
attr title "Bytes generated by the application, timeavg"
attr unit Bps
scalar MultiSeveralSatelliteSatUE_Standalone.server.app[2] cbrGeneratedBytes:mean 100
attr recordingmode mean
attr source cbrGeneratedBytesSignal
attr title "Bytes generated by the application, mean"
attr unit Bps
scalar MultiSeveralSatelliteSatUE_Standalone.server.app[2] cbrGeneratedBytes:last(sumPerDuration) 5004.8085673253
attr recordingmode last(sumPerDuration)
attr source cbrGeneratedBytesSignal
attr title "Bytes generated by the application, last(sumPerDuration)"
attr unit Bps
scalar MultiSeveralSatelliteSatUE_Standalone.server.app[2] cbrGeneratedBytes:sum 100000
attr recordingmode sum
attr source cbrGeneratedBytesSignal
attr title "Bytes generated by the application, sum"
attr unit Bps
scalar MultiSeveralSatelliteSatUE_Standalone.server.app[2] cbrGeneratedThroughtput:timeavg -nan
attr recordingmode timeavg
attr source cbrGeneratedThroughtputSignal
attr title "Throughput generated by the application, timeavg"
attr unit Bps
scalar MultiSeveralSatelliteSatUE_Standalone.server.app[2] cbrGeneratedThroughtput:mean 5000
attr recordingmode mean
attr source cbrGeneratedThroughtputSignal
attr title "Throughput generated by the application, mean"
attr unit Bps
scalar MultiSeveralSatelliteSatUE_Standalone.server.app[2] cbrGeneratedThroughtput:last(sumPerDuration) 250
attr recordingmode last(sumPerDuration)
attr source cbrGeneratedThroughtputSignal
attr title "Throughput generated by the application, last(sumPerDuration)"
attr unit Bps
scalar MultiSeveralSatelliteSatUE_Standalone.server.app[2] cbrGeneratedThroughtput:sum 5000
attr recordingmode sum
attr source cbrGeneratedThroughtputSignal
attr title "Throughput generated by the application, sum"
attr unit Bps
par MultiSeveralSatelliteSatUE_Standalone.server.app[3] typename "\"simu5g.apps.cbr.CbrSender\""
par MultiSeveralSatelliteSatUE_Standalone.server.app[3] localPort 3091
par MultiSeveralSatelliteSatUE_Standalone.server.app[3] destPort 3000
par MultiSeveralSatelliteSatUE_Standalone.server.app[3] destAddress "\"ue[3]\""
par MultiSeveralSatelliteSatUE_Standalone.server.app[3] PacketSize 100
par MultiSeveralSatelliteSatUE_Standalone.server.app[3] sampling_time 0.02s
attr unit s
par MultiSeveralSatelliteSatUE_Standalone.server.app[3] startTime 0.00973888s
attr unit s
par MultiSeveralSatelliteSatUE_Standalone.server.app[3] finishTime 40s
attr unit s
par MultiSeveralSatelliteSatUE_Standalone.server.app[3] tos -1
scalar MultiSeveralSatelliteSatUE_Standalone.server.app[3] cbrGeneratedBytes:timeavg 100
attr recordingmode timeavg
attr source cbrGeneratedBytesSignal
attr title "Bytes generated by the application, timeavg"
attr unit Bps
scalar MultiSeveralSatelliteSatUE_Standalone.server.app[3] cbrGeneratedBytes:mean 100
attr recordingmode mean
attr source cbrGeneratedBytesSignal
attr title "Bytes generated by the application, mean"
attr unit Bps
scalar MultiSeveralSatelliteSatUE_Standalone.server.app[3] cbrGeneratedBytes:last(sumPerDuration) 5002.5665959257
attr recordingmode last(sumPerDuration)
attr source cbrGeneratedBytesSignal
attr title "Bytes generated by the application, last(sumPerDuration)"
attr unit Bps
scalar MultiSeveralSatelliteSatUE_Standalone.server.app[3] cbrGeneratedBytes:sum 100000
attr recordingmode sum
attr source cbrGeneratedBytesSignal
attr title "Bytes generated by the application, sum"
attr unit Bps
scalar MultiSeveralSatelliteSatUE_Standalone.server.app[3] cbrGeneratedThroughtput:timeavg -nan
attr recordingmode timeavg
attr source cbrGeneratedThroughtputSignal
attr title "Throughput generated by the application, timeavg"
attr unit Bps
scalar MultiSeveralSatelliteSatUE_Standalone.server.app[3] cbrGeneratedThroughtput:mean 5000
attr recordingmode mean
attr source cbrGeneratedThroughtputSignal
attr title "Throughput generated by the application, mean"
attr unit Bps
scalar MultiSeveralSatelliteSatUE_Standalone.server.app[3] cbrGeneratedThroughtput:last(sumPerDuration) 250
attr recordingmode last(sumPerDuration)
attr source cbrGeneratedThroughtputSignal
attr title "Throughput generated by the application, last(sumPerDuration)"
attr unit Bps
scalar MultiSeveralSatelliteSatUE_Standalone.server.app[3] cbrGeneratedThroughtput:sum 5000
attr recordingmode sum
attr source cbrGeneratedThroughtputSignal
attr title "Throughput generated by the application, sum"
attr unit Bps
par MultiSeveralSatelliteSatUE_Standalone.server.app[4] typename "\"simu5g.apps.cbr.CbrSender\""
par MultiSeveralSatelliteSatUE_Standalone.server.app[4] localPort 3092
par MultiSeveralSatelliteSatUE_Standalone.server.app[4] destPort 3000
par MultiSeveralSatelliteSatUE_Standalone.server.app[4] destAddress "\"ue[4]\""
par MultiSeveralSatelliteSatUE_Standalone.server.app[4] PacketSize 100
par MultiSeveralSatelliteSatUE_Standalone.server.app[4] sampling_time 0.02s
attr unit s
par MultiSeveralSatelliteSatUE_Standalone.server.app[4] startTime 0.000504637s
attr unit s
par MultiSeveralSatelliteSatUE_Standalone.server.app[4] finishTime 40s
attr unit s
par MultiSeveralSatelliteSatUE_Standalone.server.app[4] tos -1
scalar MultiSeveralSatelliteSatUE_Standalone.server.app[4] cbrGeneratedBytes:timeavg 100
attr recordingmode timeavg
attr source cbrGeneratedBytesSignal
attr title "Bytes generated by the application, timeavg"
attr unit Bps
scalar MultiSeveralSatelliteSatUE_Standalone.server.app[4] cbrGeneratedBytes:mean 100
attr recordingmode mean
attr source cbrGeneratedBytesSignal
attr title "Bytes generated by the application, mean"
attr unit Bps
scalar MultiSeveralSatelliteSatUE_Standalone.server.app[4] cbrGeneratedBytes:last(sumPerDuration) 5004.8785963722
attr recordingmode last(sumPerDuration)
attr source cbrGeneratedBytesSignal
attr title "Bytes generated by the application, last(sumPerDuration)"
attr unit Bps
scalar MultiSeveralSatelliteSatUE_Standalone.server.app[4] cbrGeneratedBytes:sum 100000
attr recordingmode sum
attr source cbrGeneratedBytesSignal
attr title "Bytes generated by the application, sum"
attr unit Bps
scalar MultiSeveralSatelliteSatUE_Standalone.server.app[4] cbrGeneratedThroughtput:timeavg -nan
attr recordingmode timeavg
attr source cbrGeneratedThroughtputSignal
attr title "Throughput generated by the application, timeavg"
attr unit Bps
scalar MultiSeveralSatelliteSatUE_Standalone.server.app[4] cbrGeneratedThroughtput:mean 5000
attr recordingmode mean
attr source cbrGeneratedThroughtputSignal
attr title "Throughput generated by the application, mean"
attr unit Bps
scalar MultiSeveralSatelliteSatUE_Standalone.server.app[4] cbrGeneratedThroughtput:last(sumPerDuration) 250
attr recordingmode last(sumPerDuration)
attr source cbrGeneratedThroughtputSignal
attr title "Throughput generated by the application, last(sumPerDuration)"
attr unit Bps
scalar MultiSeveralSatelliteSatUE_Standalone.server.app[4] cbrGeneratedThroughtput:sum 5000
attr recordingmode sum
attr source cbrGeneratedThroughtputSignal
attr title "Throughput generated by the application, sum"
attr unit Bps
par MultiSeveralSatelliteSatUE_Standalone.server.app[5] typename "\"simu5g.apps.cbr.CbrSender\""
par MultiSeveralSatelliteSatUE_Standalone.server.app[5] localPort 3093
par MultiSeveralSatelliteSatUE_Standalone.server.app[5] destPort 3000
par MultiSeveralSatelliteSatUE_Standalone.server.app[5] destAddress "\"ue[5]\""
par MultiSeveralSatelliteSatUE_Standalone.server.app[5] PacketSize 100
par MultiSeveralSatelliteSatUE_Standalone.server.app[5] sampling_time 0.02s
attr unit s
par MultiSeveralSatelliteSatUE_Standalone.server.app[5] startTime 0.0106372s
attr unit s
par MultiSeveralSatelliteSatUE_Standalone.server.app[5] finishTime 40s
attr unit s
par MultiSeveralSatelliteSatUE_Standalone.server.app[5] tos -1
scalar MultiSeveralSatelliteSatUE_Standalone.server.app[5] cbrGeneratedBytes:timeavg 100
attr recordingmode timeavg
attr source cbrGeneratedBytesSignal
attr title "Bytes generated by the application, timeavg"
attr unit Bps
scalar MultiSeveralSatelliteSatUE_Standalone.server.app[5] cbrGeneratedBytes:mean 100
attr recordingmode mean
attr source cbrGeneratedBytesSignal
attr title "Bytes generated by the application, mean"
attr unit Bps
scalar MultiSeveralSatelliteSatUE_Standalone.server.app[5] cbrGeneratedBytes:last(sumPerDuration) 5002.3418008378
attr recordingmode last(sumPerDuration)
attr source cbrGeneratedBytesSignal
attr title "Bytes generated by the application, last(sumPerDuration)"
attr unit Bps
scalar MultiSeveralSatelliteSatUE_Standalone.server.app[5] cbrGeneratedBytes:sum 100000
attr recordingmode sum
attr source cbrGeneratedBytesSignal
attr title "Bytes generated by the application, sum"
attr unit Bps
scalar MultiSeveralSatelliteSatUE_Standalone.server.app[5] cbrGeneratedThroughtput:timeavg -nan
attr recordingmode timeavg
attr source cbrGeneratedThroughtputSignal
attr title "Throughput generated by the application, timeavg"
attr unit Bps
scalar MultiSeveralSatelliteSatUE_Standalone.server.app[5] cbrGeneratedThroughtput:mean 5000
attr recordingmode mean
attr source cbrGeneratedThroughtputSignal
attr title "Throughput generated by the application, mean"
attr unit Bps
scalar MultiSeveralSatelliteSatUE_Standalone.server.app[5] cbrGeneratedThroughtput:last(sumPerDuration) 250
attr recordingmode last(sumPerDuration)
attr source cbrGeneratedThroughtputSignal
attr title "Throughput generated by the application, last(sumPerDuration)"
attr unit Bps
scalar MultiSeveralSatelliteSatUE_Standalone.server.app[5] cbrGeneratedThroughtput:sum 5000
attr recordingmode sum
attr source cbrGeneratedThroughtputSignal
attr title "Throughput generated by the application, sum"
attr unit Bps
par MultiSeveralSatelliteSatUE_Standalone.server.app[6] typename "\"simu5g.apps.cbr.CbrSender\""
par MultiSeveralSatelliteSatUE_Standalone.server.app[6] localPort 3094
par MultiSeveralSatelliteSatUE_Standalone.server.app[6] destPort 3000
par MultiSeveralSatelliteSatUE_Standalone.server.app[6] destAddress "\"ue[6]\""
par MultiSeveralSatelliteSatUE_Standalone.server.app[6] PacketSize 100
par MultiSeveralSatelliteSatUE_Standalone.server.app[6] sampling_time 0.02s
attr unit s
par MultiSeveralSatelliteSatUE_Standalone.server.app[6] startTime 0.00543101s
attr unit s
par MultiSeveralSatelliteSatUE_Standalone.server.app[6] finishTime 40s
attr unit s
par MultiSeveralSatelliteSatUE_Standalone.server.app[6] tos -1
scalar MultiSeveralSatelliteSatUE_Standalone.server.app[6] cbrGeneratedBytes:timeavg 100
attr recordingmode timeavg
attr source cbrGeneratedBytesSignal
attr title "Bytes generated by the application, timeavg"
attr unit Bps
scalar MultiSeveralSatelliteSatUE_Standalone.server.app[6] cbrGeneratedBytes:mean 100
attr recordingmode mean
attr source cbrGeneratedBytesSignal
attr title "Bytes generated by the application, mean"
attr unit Bps
scalar MultiSeveralSatelliteSatUE_Standalone.server.app[6] cbrGeneratedBytes:last(sumPerDuration) 5003.6449036835
attr recordingmode last(sumPerDuration)
attr source cbrGeneratedBytesSignal
attr title "Bytes generated by the application, last(sumPerDuration)"
attr unit Bps
scalar MultiSeveralSatelliteSatUE_Standalone.server.app[6] cbrGeneratedBytes:sum 100000
attr recordingmode sum
attr source cbrGeneratedBytesSignal
attr title "Bytes generated by the application, sum"
attr unit Bps
scalar MultiSeveralSatelliteSatUE_Standalone.server.app[6] cbrGeneratedThroughtput:timeavg -nan
attr recordingmode timeavg
attr source cbrGeneratedThroughtputSignal
attr title "Throughput generated by the application, timeavg"
attr unit Bps
scalar MultiSeveralSatelliteSatUE_Standalone.server.app[6] cbrGeneratedThroughtput:mean 5000
attr recordingmode mean
attr source cbrGeneratedThroughtputSignal
attr title "Throughput generated by the application, mean"
attr unit Bps
scalar MultiSeveralSatelliteSatUE_Standalone.server.app[6] cbrGeneratedThroughtput:last(sumPerDuration) 250
attr recordingmode last(sumPerDuration)
attr source cbrGeneratedThroughtputSignal
attr title "Throughput generated by the application, last(sumPerDuration)"
attr unit Bps
scalar MultiSeveralSatelliteSatUE_Standalone.server.app[6] cbrGeneratedThroughtput:sum 5000
attr recordingmode sum
attr source cbrGeneratedThroughtputSignal
attr title "Throughput generated by the application, sum"
attr unit Bps
par MultiSeveralSatelliteSatUE_Standalone.server.app[7] typename "\"simu5g.apps.cbr.CbrSender\""
par MultiSeveralSatelliteSatUE_Standalone.server.app[7] localPort 3095
par MultiSeveralSatelliteSatUE_Standalone.server.app[7] destPort 3000
par MultiSeveralSatelliteSatUE_Standalone.server.app[7] destAddress "\"ue[7]\""
par MultiSeveralSatelliteSatUE_Standalone.server.app[7] PacketSize 100
par MultiSeveralSatelliteSatUE_Standalone.server.app[7] sampling_time 0.02s
attr unit s
par MultiSeveralSatelliteSatUE_Standalone.server.app[7] startTime 0.0192482s
attr unit s
par MultiSeveralSatelliteSatUE_Standalone.server.app[7] finishTime 40s
attr unit s
par MultiSeveralSatelliteSatUE_Standalone.server.app[7] tos -1
scalar MultiSeveralSatelliteSatUE_Standalone.server.app[7] cbrGeneratedBytes:timeavg 100
attr recordingmode timeavg
attr source cbrGeneratedBytesSignal
attr title "Bytes generated by the application, timeavg"
attr unit Bps
scalar MultiSeveralSatelliteSatUE_Standalone.server.app[7] cbrGeneratedBytes:mean 100
attr recordingmode mean
attr source cbrGeneratedBytesSignal
attr title "Bytes generated by the application, mean"
attr unit Bps
scalar MultiSeveralSatelliteSatUE_Standalone.server.app[7] cbrGeneratedBytes:last(sumPerDuration) 5000.1879556907
attr recordingmode last(sumPerDuration)
attr source cbrGeneratedBytesSignal
attr title "Bytes generated by the application, last(sumPerDuration)"
attr unit Bps
scalar MultiSeveralSatelliteSatUE_Standalone.server.app[7] cbrGeneratedBytes:sum 100000
attr recordingmode sum
attr source cbrGeneratedBytesSignal
attr title "Bytes generated by the application, sum"
attr unit Bps
scalar MultiSeveralSatelliteSatUE_Standalone.server.app[7] cbrGeneratedThroughtput:timeavg -nan
attr recordingmode timeavg
attr source cbrGeneratedThroughtputSignal
attr title "Throughput generated by the application, timeavg"
attr unit Bps
scalar MultiSeveralSatelliteSatUE_Standalone.server.app[7] cbrGeneratedThroughtput:mean 5000
attr recordingmode mean
attr source cbrGeneratedThroughtputSignal
attr title "Throughput generated by the application, mean"
attr unit Bps
scalar MultiSeveralSatelliteSatUE_Standalone.server.app[7] cbrGeneratedThroughtput:last(sumPerDuration) 250
attr recordingmode last(sumPerDuration)
attr source cbrGeneratedThroughtputSignal
attr title "Throughput generated by the application, last(sumPerDuration)"
attr unit Bps
scalar MultiSeveralSatelliteSatUE_Standalone.server.app[7] cbrGeneratedThroughtput:sum 5000
attr recordingmode sum
attr source cbrGeneratedThroughtputSignal
attr title "Throughput generated by the application, sum"
attr unit Bps
par MultiSeveralSatelliteSatUE_Standalone.server.app[8] typename "\"simu5g.apps.cbr.CbrSender\""
par MultiSeveralSatelliteSatUE_Standalone.server.app[8] localPort 3096
par MultiSeveralSatelliteSatUE_Standalone.server.app[8] destPort 3000
par MultiSeveralSatelliteSatUE_Standalone.server.app[8] destAddress "\"ue[8]\""
par MultiSeveralSatelliteSatUE_Standalone.server.app[8] PacketSize 100
par MultiSeveralSatelliteSatUE_Standalone.server.app[8] sampling_time 0.02s
attr unit s
par MultiSeveralSatelliteSatUE_Standalone.server.app[8] startTime 0.00923707s
attr unit s
par MultiSeveralSatelliteSatUE_Standalone.server.app[8] finishTime 40s
attr unit s
par MultiSeveralSatelliteSatUE_Standalone.server.app[8] tos -1
scalar MultiSeveralSatelliteSatUE_Standalone.server.app[8] cbrGeneratedBytes:timeavg 100
attr recordingmode timeavg
attr source cbrGeneratedBytesSignal
attr title "Bytes generated by the application, timeavg"
attr unit Bps
scalar MultiSeveralSatelliteSatUE_Standalone.server.app[8] cbrGeneratedBytes:mean 100
attr recordingmode mean
attr source cbrGeneratedBytesSignal
attr title "Bytes generated by the application, mean"
attr unit Bps
scalar MultiSeveralSatelliteSatUE_Standalone.server.app[8] cbrGeneratedBytes:last(sumPerDuration) 5002.6921816003
attr recordingmode last(sumPerDuration)
attr source cbrGeneratedBytesSignal
attr title "Bytes generated by the application, last(sumPerDuration)"
attr unit Bps
scalar MultiSeveralSatelliteSatUE_Standalone.server.app[8] cbrGeneratedBytes:sum 100000
attr recordingmode sum
attr source cbrGeneratedBytesSignal
attr title "Bytes generated by the application, sum"
attr unit Bps
scalar MultiSeveralSatelliteSatUE_Standalone.server.app[8] cbrGeneratedThroughtput:timeavg -nan
attr recordingmode timeavg
attr source cbrGeneratedThroughtputSignal
attr title "Throughput generated by the application, timeavg"
attr unit Bps
scalar MultiSeveralSatelliteSatUE_Standalone.server.app[8] cbrGeneratedThroughtput:mean 5000
attr recordingmode mean
attr source cbrGeneratedThroughtputSignal
attr title "Throughput generated by the application, mean"
attr unit Bps
scalar MultiSeveralSatelliteSatUE_Standalone.server.app[8] cbrGeneratedThroughtput:last(sumPerDuration) 250
attr recordingmode last(sumPerDuration)
attr source cbrGeneratedThroughtputSignal
attr title "Throughput generated by the application, last(sumPerDuration)"
attr unit Bps
scalar MultiSeveralSatelliteSatUE_Standalone.server.app[8] cbrGeneratedThroughtput:sum 5000
attr recordingmode sum
attr source cbrGeneratedThroughtputSignal
attr title "Throughput generated by the application, sum"
attr unit Bps
par MultiSeveralSatelliteSatUE_Standalone.server.app[9] typename "\"simu5g.apps.cbr.CbrSender\""
par MultiSeveralSatelliteSatUE_Standalone.server.app[9] localPort 3097
par MultiSeveralSatelliteSatUE_Standalone.server.app[9] destPort 3000
par MultiSeveralSatelliteSatUE_Standalone.server.app[9] destAddress "\"ue[9]\""
par MultiSeveralSatelliteSatUE_Standalone.server.app[9] PacketSize 100
par MultiSeveralSatelliteSatUE_Standalone.server.app[9] sampling_time 0.02s
attr unit s
par MultiSeveralSatelliteSatUE_Standalone.server.app[9] startTime 0.0135191s
attr unit s
par MultiSeveralSatelliteSatUE_Standalone.server.app[9] finishTime 40s
attr unit s
par MultiSeveralSatelliteSatUE_Standalone.server.app[9] tos -1
scalar MultiSeveralSatelliteSatUE_Standalone.server.app[9] cbrGeneratedBytes:timeavg 100
attr recordingmode timeavg
attr source cbrGeneratedBytesSignal
attr title "Bytes generated by the application, timeavg"
attr unit Bps
scalar MultiSeveralSatelliteSatUE_Standalone.server.app[9] cbrGeneratedBytes:mean 100
attr recordingmode mean
attr source cbrGeneratedBytesSignal
attr title "Bytes generated by the application, mean"
attr unit Bps
scalar MultiSeveralSatelliteSatUE_Standalone.server.app[9] cbrGeneratedBytes:last(sumPerDuration) 5001.620752121
attr recordingmode last(sumPerDuration)
attr source cbrGeneratedBytesSignal
attr title "Bytes generated by the application, last(sumPerDuration)"
attr unit Bps
scalar MultiSeveralSatelliteSatUE_Standalone.server.app[9] cbrGeneratedBytes:sum 100000
attr recordingmode sum
attr source cbrGeneratedBytesSignal
attr title "Bytes generated by the application, sum"
[...]
par MultiSeveralSatelliteSatUE_Standalone.ue[9].ipv4.configurator configureRoutingTable true
par MultiSeveralSatelliteSatUE_Standalone.ue[9].ipv4.routingTable typename "\"inet.networklayer.ipv4.Ipv4RoutingTable\""
par MultiSeveralSatelliteSatUE_Standalone.ue[9].ipv4.routingTable interfaceTableModule "\"MultiSeveralSatelliteSatUE_Standalone.ue[9].interfaceTable\""
par MultiSeveralSatelliteSatUE_Standalone.ue[9].ipv4.routingTable routerId "\"auto\""
par MultiSeveralSatelliteSatUE_Standalone.ue[9].ipv4.routingTable netmaskRoutes "\"*\""
par MultiSeveralSatelliteSatUE_Standalone.ue[9].ipv4.routingTable forwarding false
par MultiSeveralSatelliteSatUE_Standalone.ue[9].ipv4.routingTable multicastForwarding false
par MultiSeveralSatelliteSatUE_Standalone.ue[9].ipv4.routingTable useAdminDist false
par MultiSeveralSatelliteSatUE_Standalone.ue[9].ipv4.routingTable routingFile "\"\""
par MultiSeveralSatelliteSatUE_Standalone.ue[9].ipv4.natTable typename "\"inet.networklayer.ipv4.Ipv4NatTable\""
par MultiSeveralSatelliteSatUE_Standalone.ue[9].ipv4.natTable networkProtocolModule "\"^.ip\""
par MultiSeveralSatelliteSatUE_Standalone.ue[9].ipv4.natTable config "<config/> at content:1"
par MultiSeveralSatelliteSatUE_Standalone.ue[9].ipv4.up typename "\"inet.common.MessageDispatcher\""
par MultiSeveralSatelliteSatUE_Standalone.ue[9].ipv4.up displayStringTextFormat "\"processed %p pk (%l)\""
par MultiSeveralSatelliteSatUE_Standalone.ue[9].ipv4.up forwardServiceRegistration true
par MultiSeveralSatelliteSatUE_Standalone.ue[9].ipv4.up forwardProtocolRegistration true
par MultiSeveralSatelliteSatUE_Standalone.ue[9].ipv4.igmp typename "\"inet.networklayer.ipv4.Igmpv2\""
par MultiSeveralSatelliteSatUE_Standalone.ue[9].ipv4.igmp interfaceTableModule "\"MultiSeveralSatelliteSatUE_Standalone.ue[9].interfaceTable\""
par MultiSeveralSatelliteSatUE_Standalone.ue[9].ipv4.igmp routingTableModule "\"MultiSeveralSatelliteSatUE_Standalone.ue[9].ipv4.routingTable\""
par MultiSeveralSatelliteSatUE_Standalone.ue[9].ipv4.igmp crcMode "\"declared\""
attr enum declared,computed
par MultiSeveralSatelliteSatUE_Standalone.ue[9].ipv4.igmp enabled true
par MultiSeveralSatelliteSatUE_Standalone.ue[9].ipv4.igmp robustnessVariable 2
par MultiSeveralSatelliteSatUE_Standalone.ue[9].ipv4.igmp queryInterval 125s
attr unit s
par MultiSeveralSatelliteSatUE_Standalone.ue[9].ipv4.igmp queryResponseInterval 10s
attr unit s
par MultiSeveralSatelliteSatUE_Standalone.ue[9].ipv4.igmp groupMembershipInterval 260s
attr unit s
par MultiSeveralSatelliteSatUE_Standalone.ue[9].ipv4.igmp otherQuerierPresentInterval 255s
attr unit s
par MultiSeveralSatelliteSatUE_Standalone.ue[9].ipv4.igmp startupQueryInterval 31.25s
attr unit s
par MultiSeveralSatelliteSatUE_Standalone.ue[9].ipv4.igmp startupQueryCount 2
par MultiSeveralSatelliteSatUE_Standalone.ue[9].ipv4.igmp lastMemberQueryInterval 1s
attr unit s
par MultiSeveralSatelliteSatUE_Standalone.ue[9].ipv4.igmp lastMemberQueryCount 2
par MultiSeveralSatelliteSatUE_Standalone.ue[9].ipv4.igmp unsolicitedReportInterval 10s
attr unit s
par MultiSeveralSatelliteSatUE_Standalone.ue[9].ipv4.icmp typename "\"inet.networklayer.ipv4.Icmp\""
par MultiSeveralSatelliteSatUE_Standalone.ue[9].ipv4.icmp interfaceTableModule "\"MultiSeveralSatelliteSatUE_Standalone.ue[9].interfaceTable\""
par MultiSeveralSatelliteSatUE_Standalone.ue[9].ipv4.icmp routingTableModule "\"MultiSeveralSatelliteSatUE_Standalone.ue[9].ipv4.routingTable\""
par MultiSeveralSatelliteSatUE_Standalone.ue[9].ipv4.icmp crcMode "\"declared\""
attr enum declared,computed
attr mutable ""
par MultiSeveralSatelliteSatUE_Standalone.ue[9].ipv4.icmp quoteLength 8B
attr mutable ""
attr unit B
par MultiSeveralSatelliteSatUE_Standalone.ue[9].ipv4.mp typename "\"inet.common.MessageDispatcher\""
par MultiSeveralSatelliteSatUE_Standalone.ue[9].ipv4.mp displayStringTextFormat "\"processed %p pk (%l)\""
par MultiSeveralSatelliteSatUE_Standalone.ue[9].ipv4.mp forwardServiceRegistration true
par MultiSeveralSatelliteSatUE_Standalone.ue[9].ipv4.mp forwardProtocolRegistration true
par MultiSeveralSatelliteSatUE_Standalone.ue[9].ipv4.ip typename "\"inet.networklayer.ipv4.Ipv4\""
par MultiSeveralSatelliteSatUE_Standalone.ue[9].ipv4.ip interfaceTableModule "\"MultiSeveralSatelliteSatUE_Standalone.ue[9].interfaceTable\""
par MultiSeveralSatelliteSatUE_Standalone.ue[9].ipv4.ip routingTableModule "\"MultiSeveralSatelliteSatUE_Standalone.ue[9].ipv4.routingTable\""
par MultiSeveralSatelliteSatUE_Standalone.ue[9].ipv4.ip arpModule "\"MultiSeveralSatelliteSatUE_Standalone.ue[9].ipv4.arp\""
par MultiSeveralSatelliteSatUE_Standalone.ue[9].ipv4.ip icmpModule "\"MultiSeveralSatelliteSatUE_Standalone.ue[9].ipv4.icmp\""
par MultiSeveralSatelliteSatUE_Standalone.ue[9].ipv4.ip crcMode "\"declared\""
attr enum declared,computed
par MultiSeveralSatelliteSatUE_Standalone.ue[9].ipv4.ip timeToLive 32
par MultiSeveralSatelliteSatUE_Standalone.ue[9].ipv4.ip multicastTimeToLive 32
par MultiSeveralSatelliteSatUE_Standalone.ue[9].ipv4.ip fragmentTimeout 60s
attr unit s
par MultiSeveralSatelliteSatUE_Standalone.ue[9].ipv4.ip limitedBroadcast false
par MultiSeveralSatelliteSatUE_Standalone.ue[9].ipv4.ip directBroadcastInterfaces "\"\""
scalar MultiSeveralSatelliteSatUE_Standalone.ue[9].ipv4.ip packetDropAddressResolutionFailed:count 0
attr interpolationmode none
attr recordingmode count
attr source packetDropReasonIsAddressResolutionFailed(packetDropped)
attr title "packet drop: address resolution failed, count"
scalar MultiSeveralSatelliteSatUE_Standalone.ue[9].ipv4.ip packetDropAddressResolutionFailed:sum(packetBytes) 0
attr interpolationmode none
attr recordingmode sum(packetBytes)
attr source packetDropReasonIsAddressResolutionFailed(packetDropped)
attr title "packet drop: address resolution failed, sum(packetBytes)"
scalar MultiSeveralSatelliteSatUE_Standalone.ue[9].ipv4.ip packetDropHopLimitReached:count 0
attr interpolationmode none
attr recordingmode count
attr source packetDropReasonIsHopLimitReached(packetDropped)
attr title "packet drop: hop limit reached, count"
scalar MultiSeveralSatelliteSatUE_Standalone.ue[9].ipv4.ip packetDropHopLimitReached:sum(packetBytes) 0
attr interpolationmode none
attr recordingmode sum(packetBytes)
attr source packetDropReasonIsHopLimitReached(packetDropped)
attr title "packet drop: hop limit reached, sum(packetBytes)"
scalar MultiSeveralSatelliteSatUE_Standalone.ue[9].ipv4.ip packetDropForwardingDisabled:count 0
attr interpolationmode none
attr recordingmode count
attr source packetDropReasonIsForwardingDisabled(packetDropped)
attr title "packet drop: forwarding disabled, count"
scalar MultiSeveralSatelliteSatUE_Standalone.ue[9].ipv4.ip packetDropForwardingDisabled:sum(packetBytes) 0
attr interpolationmode none
attr recordingmode sum(packetBytes)
attr source packetDropReasonIsForwardingDisabled(packetDropped)
attr title "packet drop: forwarding disabled, sum(packetBytes)"
scalar MultiSeveralSatelliteSatUE_Standalone.ue[9].ipv4.ip packetDropNoInterfaceFound:count 0
attr interpolationmode none
attr recordingmode count
attr source packetDropReasonIsNoInterfaceFound(packetDropped)
attr title "packet drop: no interface found, count"
scalar MultiSeveralSatelliteSatUE_Standalone.ue[9].ipv4.ip packetDropNoInterfaceFound:sum(packetBytes) 0
attr interpolationmode none
attr recordingmode sum(packetBytes)
attr source packetDropReasonIsNoInterfaceFound(packetDropped)
attr title "packet drop: no interface found, sum(packetBytes)"
scalar MultiSeveralSatelliteSatUE_Standalone.ue[9].ipv4.ip packetDropNoRouteFound:count 0
attr interpolationmode none
attr recordingmode count
attr source packetDropReasonIsNoRouteFound(packetDropped)
attr title "packet drop: no route found, count"
scalar MultiSeveralSatelliteSatUE_Standalone.ue[9].ipv4.ip packetDropNoRouteFound:sum(packetBytes) 0
attr interpolationmode none
attr recordingmode sum(packetBytes)
attr source packetDropReasonIsNoRouteFound(packetDropped)
attr title "packet drop: no route found, sum(packetBytes)"
scalar MultiSeveralSatelliteSatUE_Standalone.ue[9].ipv4.ip packetDropUndefined:count 0
attr interpolationmode none
attr recordingmode count
attr source packetDropReasonIsUndefined(packetDropped)
attr title "packet drop: undefined, count"
scalar MultiSeveralSatelliteSatUE_Standalone.ue[9].ipv4.ip packetDropUndefined:sum(packetBytes) 0
attr interpolationmode none
attr recordingmode sum(packetBytes)
attr source packetDropReasonIsUndefined(packetDropped)
attr title "packet drop: undefined, sum(packetBytes)"
par MultiSeveralSatelliteSatUE_Standalone.ue[9].ipv4.arp typename "\"inet.networklayer.arp.ipv4.Arp\""
par MultiSeveralSatelliteSatUE_Standalone.ue[9].ipv4.arp interfaceTableModule "\"MultiSeveralSatelliteSatUE_Standalone.ue[9].interfaceTable\""
par MultiSeveralSatelliteSatUE_Standalone.ue[9].ipv4.arp routingTableModule "\"MultiSeveralSatelliteSatUE_Standalone.ue[9].ipv4.routingTable\""
par MultiSeveralSatelliteSatUE_Standalone.ue[9].ipv4.arp retryTimeout 1s
attr unit s
par MultiSeveralSatelliteSatUE_Standalone.ue[9].ipv4.arp retryCount 3
par MultiSeveralSatelliteSatUE_Standalone.ue[9].ipv4.arp cacheTimeout 120s
attr unit s
par MultiSeveralSatelliteSatUE_Standalone.ue[9].ipv4.arp proxyArpInterfaces "\"*\""
scalar MultiSeveralSatelliteSatUE_Standalone.ue[9].ipv4.arp arpResolutionFailed:count 0
attr recordingmode count
attr title "ARP failed resolutions, count"
scalar MultiSeveralSatelliteSatUE_Standalone.ue[9].ipv4.arp arpResolutionCompleted:count 0
attr recordingmode count
attr title "ARP completed resolutions, count"
scalar MultiSeveralSatelliteSatUE_Standalone.ue[9].ipv4.arp arpResolutionInitiated:count 0
attr recordingmode count
attr title "ARP initiated resolutions, count"
scalar MultiSeveralSatelliteSatUE_Standalone.ue[9].ipv4.arp arpReplySent:count 0
attr recordingmode count
attr source arpReplySent
attr title "ARP replies sent, count"
scalar MultiSeveralSatelliteSatUE_Standalone.ue[9].ipv4.arp arpReplySent:sum(packetBytes) 0
attr recordingmode sum(packetBytes)
attr source arpReplySent
attr title "ARP replies sent, sum(packetBytes)"
scalar MultiSeveralSatelliteSatUE_Standalone.ue[9].ipv4.arp arpRequestSent:count 0
attr recordingmode count
attr source arpRequestSent
attr title "ARP request sent, count"
scalar MultiSeveralSatelliteSatUE_Standalone.ue[9].ipv4.arp arpRequestSent:sum(packetBytes) 0
attr recordingmode sum(packetBytes)
attr source arpRequestSent
attr title "ARP request sent, sum(packetBytes)"
par MultiSeveralSatelliteSatUE_Standalone.ue[9].ipv4.lp typename "\"inet.common.MessageDispatcher\""
par MultiSeveralSatelliteSatUE_Standalone.ue[9].ipv4.lp displayStringTextFormat "\"processed %p pk (%l)\""
par MultiSeveralSatelliteSatUE_Standalone.ue[9].ipv4.lp forwardServiceRegistration true
par MultiSeveralSatelliteSatUE_Standalone.ue[9].ipv4.lp forwardProtocolRegistration true
par MultiSeveralSatelliteSatUE_Standalone.ue[9].ipv4 typename "\"inet.networklayer.ipv4.Ipv4NetworkLayer\""
par MultiSeveralSatelliteSatUE_Standalone.ue[9].ipv4 forwarding false
par MultiSeveralSatelliteSatUE_Standalone.ue[9].ipv4 multicastForwarding false
par MultiSeveralSatelliteSatUE_Standalone.ue[9].ipv4 interfaceTableModule "\"MultiSeveralSatelliteSatUE_Standalone.ue[9].interfaceTable\""
par MultiSeveralSatelliteSatUE_Standalone.ue[9].ipv4 displayStringTextFormat "\"%i\""
par MultiSeveralSatelliteSatUE_Standalone.ue[9].udp typename "\"inet.transportlayer.udp.Udp\""
par MultiSeveralSatelliteSatUE_Standalone.ue[9].udp interfaceTableModule "\"MultiSeveralSatelliteSatUE_Standalone.ue[9].interfaceTable\""
par MultiSeveralSatelliteSatUE_Standalone.ue[9].udp icmpModule "\"^.ipv4.icmp\""
par MultiSeveralSatelliteSatUE_Standalone.ue[9].udp icmpv6Module "\"^.ipv6.icmpv6\""
par MultiSeveralSatelliteSatUE_Standalone.ue[9].udp crcMode "\"declared\""
attr enum disabled,declared,computed
par MultiSeveralSatelliteSatUE_Standalone.ue[9].udp defaultMulticastLoop true
scalar MultiSeveralSatelliteSatUE_Standalone.ue[9].udp packetReceived:count 453
attr interpolationmode none
attr recordingmode count
attr source packetReceived
attr title "packets received, count"
scalar MultiSeveralSatelliteSatUE_Standalone.ue[9].udp packetReceived:sum(packetBytes) 48924
attr interpolationmode none
attr recordingmode sum(packetBytes)
attr source packetReceived
attr title "packets received, sum(packetBytes)"
scalar MultiSeveralSatelliteSatUE_Standalone.ue[9].udp packetSent:count 0
attr interpolationmode none
attr recordingmode count
attr source packetSent
attr title "packets sent, count"
scalar MultiSeveralSatelliteSatUE_Standalone.ue[9].udp packetSent:sum(packetBytes) 0
attr interpolationmode none
attr recordingmode sum(packetBytes)
attr source packetSent
attr title "packets sent, sum(packetBytes)"
scalar MultiSeveralSatelliteSatUE_Standalone.ue[9].udp passedUpPk:count 453
attr interpolationmode none
attr recordingmode count
attr source packetSentToUpper
attr title "packets passed up, count"
scalar MultiSeveralSatelliteSatUE_Standalone.ue[9].udp droppedPkWrongPort:count 0
attr interpolationmode none
attr recordingmode count
attr source packetDropReasonIsNoPortFound(packetDropped)
attr title "packets dropped (wrong port), count"
scalar MultiSeveralSatelliteSatUE_Standalone.ue[9].udp droppedPkBadChecksum:count 0
attr interpolationmode none
attr recordingmode count
attr source packetDropReasonIsIncorrectlyReceived(packetDropped)
attr title "packets dropped (checksum error), count"
par MultiSeveralSatelliteSatUE_Standalone.ue[9].tcp typename "\"inet.transportlayer.tcp.Tcp\""
par MultiSeveralSatelliteSatUE_Standalone.ue[9].tcp crcMode "\"declared\""
attr enum declared,computed
par MultiSeveralSatelliteSatUE_Standalone.ue[9].tcp advertisedWindow 7504
par MultiSeveralSatelliteSatUE_Standalone.ue[9].tcp delayedAcksEnabled false
par MultiSeveralSatelliteSatUE_Standalone.ue[9].tcp nagleEnabled true
par MultiSeveralSatelliteSatUE_Standalone.ue[9].tcp limitedTransmitEnabled false
par MultiSeveralSatelliteSatUE_Standalone.ue[9].tcp increasedIWEnabled false
par MultiSeveralSatelliteSatUE_Standalone.ue[9].tcp sackSupport false
par MultiSeveralSatelliteSatUE_Standalone.ue[9].tcp windowScalingSupport false
par MultiSeveralSatelliteSatUE_Standalone.ue[9].tcp windowScalingFactor -1
par MultiSeveralSatelliteSatUE_Standalone.ue[9].tcp timestampSupport false
par MultiSeveralSatelliteSatUE_Standalone.ue[9].tcp mss 536
par MultiSeveralSatelliteSatUE_Standalone.ue[9].tcp msl 120s
attr unit s
par MultiSeveralSatelliteSatUE_Standalone.ue[9].tcp tcpAlgorithmClass "\"TcpReno\""
attr enum TcpVegas,TcpWestwood,TcpNewReno,TcpReno,TcpTahoe,TcpNoCongestionControl
par MultiSeveralSatelliteSatUE_Standalone.ue[9].tcp useDataNotification false
par MultiSeveralSatelliteSatUE_Standalone.ue[9].tcp dupthresh 3
par MultiSeveralSatelliteSatUE_Standalone.ue[9].tcp initialSsthresh 4294967295
par MultiSeveralSatelliteSatUE_Standalone.ue[9].tcp stopOperationExtraTime 0s
attr unit s
par MultiSeveralSatelliteSatUE_Standalone.ue[9].tcp stopOperationTimeout 2s
attr unit s
par MultiSeveralSatelliteSatUE_Standalone.ue[9].tcp ecnWillingness false
par MultiSeveralSatelliteSatUE_Standalone.ue[9].tcp dctcpGamma 0.0625
par MultiSeveralSatelliteSatUE_Standalone.ue[9].app[0] typename "\"simu5g.apps.cbr.CbrReceiver\""
par MultiSeveralSatelliteSatUE_Standalone.ue[9].app[0] localPort 3000
scalar MultiSeveralSatelliteSatUE_Standalone.ue[9].app[0] cbrReceivedBytes:timeavg 100
attr recordingmode timeavg
attr source cbrReceivedBytesSignal
attr title "Bytes received at the application level, timeavg"
attr unit Bps
scalar MultiSeveralSatelliteSatUE_Standalone.ue[9].app[0] cbrReceivedBytes:mean 100
attr recordingmode mean
attr source cbrReceivedBytesSignal
attr title "Bytes received at the application level, mean"
attr unit Bps
scalar MultiSeveralSatelliteSatUE_Standalone.ue[9].app[0] cbrReceivedBytes:sum 45300
attr recordingmode sum
attr source cbrReceivedBytesSignal
attr title "Bytes received at the application level, sum"
attr unit Bps
scalar MultiSeveralSatelliteSatUE_Standalone.ue[9].app[0] cbrReceivedThroughtput:timeavg -nan
attr recordingmode timeavg
attr source cbrReceivedThroughtputSignal
attr title "Throughput received at the application level, timeavg"
attr unit Bps
scalar MultiSeveralSatelliteSatUE_Standalone.ue[9].app[0] cbrReceivedThroughtput:mean 2265
attr recordingmode mean
attr source cbrReceivedThroughtputSignal
attr title "Throughput received at the application level, mean"
attr unit Bps
scalar MultiSeveralSatelliteSatUE_Standalone.ue[9].app[0] cbrReceivedThroughtput:sum 2265
attr recordingmode sum
attr source cbrReceivedThroughtputSignal
attr title "Throughput received at the application level, sum"
attr unit Bps
scalar MultiSeveralSatelliteSatUE_Standalone.ue[9].app[0] cbrJitter:mean -nan
attr recordingmode mean
attr source cbrJitterSignal
attr title "Cbr Playout Loss, mean"
attr unit s
scalar MultiSeveralSatelliteSatUE_Standalone.ue[9].app[0] cbrFrameDelay:mean 0.025798788489702
attr recordingmode mean
attr source cbrFrameDelaySignal
attr title "Cbr Frame Delay, mean"
attr unit s
scalar MultiSeveralSatelliteSatUE_Standalone.ue[9].app[0] cbrFrameLoss:mean 0.77338669334667
attr recordingmode mean
attr source cbrFrameLossSignal
attr title "Cbr Frame Loss, mean"
attr unit ratio
par MultiSeveralSatelliteSatUE_Standalone.ue[9].at typename "\"inet.common.MessageDispatcher\""
par MultiSeveralSatelliteSatUE_Standalone.ue[9].at displayStringTextFormat "\"processed %p pk (%l)\""
par MultiSeveralSatelliteSatUE_Standalone.ue[9].at forwardServiceRegistration true
par MultiSeveralSatelliteSatUE_Standalone.ue[9].at forwardProtocolRegistration true
par MultiSeveralSatelliteSatUE_Standalone.ue[9].tn typename "\"inet.common.MessageDispatcher\""
par MultiSeveralSatelliteSatUE_Standalone.ue[9].tn displayStringTextFormat "\"processed %p pk (%l)\""
par MultiSeveralSatelliteSatUE_Standalone.ue[9].tn forwardServiceRegistration true
par MultiSeveralSatelliteSatUE_Standalone.ue[9].tn forwardProtocolRegistration true
par MultiSeveralSatelliteSatUE_Standalone.ue[9].nl typename "\"inet.common.MessageDispatcher\""
par MultiSeveralSatelliteSatUE_Standalone.ue[9].nl displayStringTextFormat "\"processed %p pk (%l)\""
par MultiSeveralSatelliteSatUE_Standalone.ue[9].nl forwardServiceRegistration true
par MultiSeveralSatelliteSatUE_Standalone.ue[9].nl forwardProtocolRegistration true
par MultiSeveralSatelliteSatUE_Standalone.ue[9] typename "\"simu5g.nodes.SatCom.SatUe\""
par MultiSeveralSatelliteSatUE_Standalone.ue[9] numApps 1
par MultiSeveralSatelliteSatUE_Standalone.ue[9] hasUdp true
par MultiSeveralSatelliteSatUE_Standalone.ue[9] hasTcp true
par MultiSeveralSatelliteSatUE_Standalone.ue[9] hasSctp false
par MultiSeveralSatelliteSatUE_Standalone.ue[9] nodeType "\"UE\""
par MultiSeveralSatelliteSatUE_Standalone.ue[9] masterId 0
attr mutable ""
par MultiSeveralSatelliteSatUE_Standalone.ue[9] macNodeId 1034
attr mutable ""
par MultiSeveralSatelliteSatUE_Standalone.ue[9] macCellId 0
attr mutable ""
par MultiSeveralSatelliteSatUE_Standalone.ue[9] nicType "\"SatNicUe\""
par MultiSeveralSatelliteSatUE_Standalone.ue[9] hasIpv4 true
par MultiSeveralSatelliteSatUE_Standalone.ue[9] hasIpv6 false
par MultiSeveralSatelliteSatUE_Standalone.ue[9] numEthInterfaces 0
par MultiSeveralSatelliteSatUE_Standalone.ue[9] extHostAddress "\"\""
par MultiSeveralSatelliteSatUE_Standalone.ue[9] numLoInterfaces 1
par MultiSeveralSatelliteSatUE_Standalone.ue[9] numPcapRecorders 0
par MultiSeveralSatelliteSatUE_Standalone.ue[9] hasRNISupport false
par MultiSeveralSatelliteSatUE_Standalone.ue[9] nrMasterId 2
attr mutable ""
par MultiSeveralSatelliteSatUE_Standalone.ue[9] nrMacNodeId 2058
attr mutable ""
par MultiSeveralSatelliteSatUE_Standalone.ue[9] nrMacCellId 1
attr mutable ""
par MultiSeveralSatelliteSatUE_Standalone typename "\"simu5g.simulations.SatCom.networks.MultiSeveralSatelliteSatUE_Standalone\""
par MultiSeveralSatelliteSatUE_Standalone numUe 10
par MultiSeveralSatelliteSatUE_Standalone numBgCells 0

