file 25612599 1732964972                                        
version 3
run CBR-DL-1-20241130-11:58:30-429612
attr configname CBR-DL
attr datetime 20241130-11:58:30
attr datetimef 20241130-115830
attr experiment CBR-DL
attr inifile omnetpp.ini
attr iterationvars "$u=0, $numRbs=50, $numUEs=10"
attr iterationvarsd u=0/numRbs=50/numUEs=10
attr iterationvarsf u=0,numRbs=50,numUEs=10-
attr measurement "$u=0, $numRbs=50, $numUEs=10"
attr network simu5g.simulations.SatCom.networks.MultiSeveralSatelliteSatUE_Standalone
attr processid 429612
attr repetition 0
attr replication #0
attr resultdir results
attr runnumber 1
attr seedset 0
itervar numRbs 50
itervar numUEs 10
itervar u 0
config extends MultiCell
config description "CBR DL traffic from remote server to UEs"
config *.ue[*].numApps 1
config *.server.numApps 10
config *.ue[*].app[*].typename CbrReceiver
config *.ue[*].app[*].localPort 3000
config *.server.app[*].typename CbrSender
config *.server.app[*].PacketSize 100
config *.server.app[*].sampling_time 0.02s
config *.server.app[*].destAddress "\"ue[\" + string(ancestorIndex(0)) + \"]\""
config *.server.app[*].destPort 3000
config *.server.app[*].localPort 3088+ancestorIndex(0)
config *.server.app[*].startTime uniform(0s,0.02s)
config *.server.app[*].finishTime 40s
config *.ue[*].cellularNic.rrc.debug true
config *.gnbSat*.cellularNic.rrc.debug true
config *.ue[*].cellularNic.nrPhy.debug true
config *.gnbSat*.cellularNic.nrPhy.debug true
config *.binder.debug true
config *.configurator.verbose true
config network simu5g.simulations.SatCom.networks.MultiSeveralSatelliteSatUE_Standalone
config sim-time-limit 20s
config description "Base configuration, do not run this config!"
config **.mobility.constraintAreaMaxX 1100m
config **.mobility.constraintAreaMaxY 750m
config **.mobility.constraintAreaMinX 0m
config **.mobility.constraintAreaMinY 0m
config **.mobility.constraintAreaMinZ 0m
config **.mobility.constraintAreaMaxZ 0m
config **.mobility.initFromDisplayString false
config *.carrierAggregation.numComponentCarriers 1
config *.carrierAggregation.componentCarrier[0].numerologyIndex 0
config *.carrierAggregation.componentCarrier[0].carrierFrequency 2GHz
config *.carrierAggregation.componentCarrier[0].numBands 50
config *.gnbSat*.cellularNic.numCarriers 1
config *.gnbSat*.cellularNic.channelModel[0].componentCarrierIndex 0
config *.ue[*].cellularNic.numCarriers 1
config *.gnbSat1.mobility.initialX 20m
config *.gnbSat1.mobility.initialY 350m
config *.gnbSat1.mobility.typename LinearMobility
config *.gnbSat1.mobility.initialX 50m
config *.gnbSat1.mobility.initialY 550m
config *.gnbSat1.mobility.speed 15mps
config *.gnbSat1.mobility.initialMovementHeading 0deg
config *.gnbSat2.mobility.initialX 500m
config *.gnbSat2.mobility.initialY 350m
config *.gnbSat2.mobility.typename LinearMobility
config *.gnbSat2.mobility.initialX 50m
config *.gnbSat2.mobility.initialY 550m
config *.gnbSat2.mobility.speed 15mps
config *.gnbSat2.mobility.initialMovementHeading 0deg
config *.gnbSat3.mobility.initialX 350m
config *.gnbSat3.mobility.initialY 110m
config *.gnbSat3.mobility.typename LinearMobility
config *.gnbSat3.mobility.initialX 50m
config *.gnbSat3.mobility.initialY 550m
config *.gnbSat3.mobility.speed 15mps
config *.gnbSat3.mobility.initialMovementHeading 90deg
config *.gnbSat*.numX2Apps 2
config *.gnbSat*.x2App[*].server.localPort "5000 + ancestorIndex(1)"
config *.gnbSat1.x2App[0].client.connectAddress "\"gnbSat2%x2ppp0\""
config *.gnbSat1.x2App[1].client.connectAddress "\"gnbSat3%x2ppp0\""
config *.gnbSat2.x2App[0].client.connectAddress "\"gnbSat1%x2ppp0\""
config *.gnbSat2.x2App[1].client.connectAddress "\"gnbSat3%x2ppp0\""
config *.gnbSat3.x2App[0].client.connectAddress "\"gnbSat1%x2ppp0\""
config *.gnbSat3.x2App[1].client.connectAddress "\"gnbSat2%x2ppp0\""
config *.numUe 10
config *.ue[*].macCellId 0
config *.ue[*].masterId 0
config *.ue[*].nrMacCellId 1
config *.ue[*].nrMasterId 2
config **.dynamicCellAssociation false
config **.enableHandover true
config *.ue[0].mobility.initialX 450m
config *.ue[0].mobility.initialY 350m
config image-path ../../../images
config output-scalar-file-append false
config **.routingRecorder.enabled false
config output-scalar-file "results/CBR-DL/$u=0, $numRbs=50, $numUEs=10-0.sca"
config output-vector-file "results/CBR-DL/$u=0, $numRbs=50, $numUEs=10-0.vec"
config seed-set 0
config **.sctp.**.scalar-recording false
config **.sctp.**.vector-recording false
config **.vector-recording true
config **.sctp.nagleEnabled false
config **.sctp.enableHeartbeats false
config **.downlink_interference true
config **.uplink_interference true
config **.ueTxPower 1dBm
config **.eNodeBTxPower 2dBm
config **.targetBler 0.01
config **.blerShift 5
config **.fbPeriod 40
config *.configurator.config "xmldoc(\"./demo.xml\")"

vector 0 MultiSeveralSatelliteSatUE_Standalone.server.ppp[0].queue queueLength:vector ETV
attr autoWarmupFilter false
attr interpolationmode sample-hold
attr recordingmode vector
attr source "warmup(atomic(constant0(packetPushEnded) + count(packetPushStarted) - count(packetPulled) - count(packetRemoved) - count(packetDropped)))"
attr title "queue length"
attr unit pk
vector 1 MultiSeveralSatelliteSatUE_Standalone.server.ppp[0].queue queueBitLength:vector ETV
attr autoWarmupFilter false
attr interpolationmode sample-hold
attr recordingmode vector
attr source "warmup(atomic(constant0(packetPushEnded) + sum(packetLength(packetPushStarted)) - sum(packetLength(packetPulled)) - sum(packetLength(packetRemoved)) - sum(packetLength(packetDropped))))"
attr title "queue bit length"
attr unit b
vector 2 MultiSeveralSatelliteSatUE_Standalone.server.ppp[0].ppp transmissionState:vector ETV
attr interpolationmode sample-hold
attr recordingmode vector
attr source transmissionStateChanged
attr title "tx state"
vector 3 MultiSeveralSatelliteSatUE_Standalone.server.udp passedUpPk:vector(count) ETV
attr interpolationmode none
attr recordingmode vector(count)
attr source packetSentToUpper
attr title "packets passed up, count"
vector 4 MultiSeveralSatelliteSatUE_Standalone.server.udp droppedPkWrongPort:vector(count) ETV
attr interpolationmode none
attr recordingmode vector(count)
attr source packetDropReasonIsNoPortFound(packetDropped)
attr title "packets dropped (wrong port), count"
vector 5 MultiSeveralSatelliteSatUE_Standalone.server.udp droppedPkBadChecksum:vector(count) ETV
attr interpolationmode none
attr recordingmode vector(count)
attr source packetDropReasonIsIncorrectlyReceived(packetDropped)
attr title "packets dropped (checksum error), count"
vector 6 MultiSeveralSatelliteSatUE_Standalone.router.ppp[0].queue queueLength:vector ETV
attr autoWarmupFilter false
attr interpolationmode sample-hold
attr recordingmode vector
attr source "warmup(atomic(constant0(packetPushEnded) + count(packetPushStarted) - count(packetPulled) - count(packetRemoved) - count(packetDropped)))"
attr title "queue length"
attr unit pk
vector 7 MultiSeveralSatelliteSatUE_Standalone.router.ppp[0].queue queueBitLength:vector ETV
attr autoWarmupFilter false
attr interpolationmode sample-hold
attr recordingmode vector
attr source "warmup(atomic(constant0(packetPushEnded) + sum(packetLength(packetPushStarted)) - sum(packetLength(packetPulled)) - sum(packetLength(packetRemoved)) - sum(packetLength(packetDropped))))"
attr title "queue bit length"
attr unit b
vector 8 MultiSeveralSatelliteSatUE_Standalone.router.ppp[0].ppp transmissionState:vector ETV
attr interpolationmode sample-hold
attr recordingmode vector
attr source transmissionStateChanged
attr title "tx state"
vector 9 MultiSeveralSatelliteSatUE_Standalone.router.ppp[1].queue queueLength:vector ETV
attr autoWarmupFilter false
attr interpolationmode sample-hold
attr recordingmode vector
attr source "warmup(atomic(constant0(packetPushEnded) + count(packetPushStarted) - count(packetPulled) - count(packetRemoved) - count(packetDropped)))"
attr title "queue length"
attr unit pk
vector 10 MultiSeveralSatelliteSatUE_Standalone.router.ppp[1].queue queueBitLength:vector ETV
attr autoWarmupFilter false
attr interpolationmode sample-hold
attr recordingmode vector
attr source "warmup(atomic(constant0(packetPushEnded) + sum(packetLength(packetPushStarted)) - sum(packetLength(packetPulled)) - sum(packetLength(packetRemoved)) - sum(packetLength(packetDropped))))"
attr title "queue bit length"
attr unit b
vector 11 MultiSeveralSatelliteSatUE_Standalone.router.ppp[1].ppp transmissionState:vector ETV
attr interpolationmode sample-hold
attr recordingmode vector
attr source transmissionStateChanged
attr title "tx state"
vector 12 MultiSeveralSatelliteSatUE_Standalone.upf.ppp[0].queue queueLength:vector ETV
attr autoWarmupFilter false
attr interpolationmode sample-hold
attr recordingmode vector
attr source "warmup(atomic(constant0(packetPushEnded) + count(packetPushStarted) - count(packetPulled) - count(packetRemoved) - count(packetDropped)))"
attr title "queue length"
attr unit pk
vector 13 MultiSeveralSatelliteSatUE_Standalone.upf.ppp[0].queue queueBitLength:vector ETV
attr autoWarmupFilter false
attr interpolationmode sample-hold
attr recordingmode vector
attr source "warmup(atomic(constant0(packetPushEnded) + sum(packetLength(packetPushStarted)) - sum(packetLength(packetPulled)) - sum(packetLength(packetRemoved)) - sum(packetLength(packetDropped))))"
attr title "queue bit length"
attr unit b
vector 14 MultiSeveralSatelliteSatUE_Standalone.upf.ppp[0].ppp transmissionState:vector ETV
attr interpolationmode sample-hold
attr recordingmode vector
attr source transmissionStateChanged
attr title "tx state"
vector 15 MultiSeveralSatelliteSatUE_Standalone.upf.pppIf.queue queueLength:vector ETV
attr autoWarmupFilter false
attr interpolationmode sample-hold
attr recordingmode vector
attr source "warmup(atomic(constant0(packetPushEnded) + count(packetPushStarted) - count(packetPulled) - count(packetRemoved) - count(packetDropped)))"
attr title "queue length"
attr unit pk
vector 16 MultiSeveralSatelliteSatUE_Standalone.upf.pppIf.queue queueBitLength:vector ETV
attr autoWarmupFilter false
attr interpolationmode sample-hold
attr recordingmode vector
attr source "warmup(atomic(constant0(packetPushEnded) + sum(packetLength(packetPushStarted)) - sum(packetLength(packetPulled)) - sum(packetLength(packetRemoved)) - sum(packetLength(packetDropped))))"
attr title "queue bit length"
attr unit b
vector 17 MultiSeveralSatelliteSatUE_Standalone.upf.pppIf.ppp transmissionState:vector ETV
attr interpolationmode sample-hold
attr recordingmode vector
attr source transmissionStateChanged
attr title "tx state"
vector 18 MultiSeveralSatelliteSatUE_Standalone.upf.udp passedUpPk:vector(count) ETV
attr interpolationmode none
attr recordingmode vector(count)
attr source packetSentToUpper
attr title "packets passed up, count"
vector 19 MultiSeveralSatelliteSatUE_Standalone.upf.udp droppedPkWrongPort:vector(count) ETV
attr interpolationmode none
attr recordingmode vector(count)
attr source packetDropReasonIsNoPortFound(packetDropped)
attr title "packets dropped (wrong port), count"
vector 20 MultiSeveralSatelliteSatUE_Standalone.upf.udp droppedPkBadChecksum:vector(count) ETV
attr interpolationmode none
attr recordingmode vector(count)
attr source packetDropReasonIsIncorrectlyReceived(packetDropped)
attr title "packets dropped (checksum error), count"
vector 21 MultiSeveralSatelliteSatUE_Standalone.iUpf.ppp[0].queue queueLength:vector ETV
attr autoWarmupFilter false
attr interpolationmode sample-hold
attr recordingmode vector
attr source "warmup(atomic(constant0(packetPushEnded) + count(packetPushStarted) - count(packetPulled) - count(packetRemoved) - count(packetDropped)))"
attr title "queue length"
attr unit pk
vector 22 MultiSeveralSatelliteSatUE_Standalone.iUpf.ppp[0].queue queueBitLength:vector ETV
attr autoWarmupFilter false
attr interpolationmode sample-hold
attr recordingmode vector
attr source "warmup(atomic(constant0(packetPushEnded) + sum(packetLength(packetPushStarted)) - sum(packetLength(packetPulled)) - sum(packetLength(packetRemoved)) - sum(packetLength(packetDropped))))"
attr title "queue bit length"
attr unit b
vector 23 MultiSeveralSatelliteSatUE_Standalone.iUpf.ppp[0].ppp transmissionState:vector ETV
attr interpolationmode sample-hold
attr recordingmode vector
attr source transmissionStateChanged
attr title "tx state"
vector 24 MultiSeveralSatelliteSatUE_Standalone.iUpf.ppp[1].queue queueLength:vector ETV
attr autoWarmupFilter false
attr interpolationmode sample-hold
attr recordingmode vector
attr source "warmup(atomic(constant0(packetPushEnded) + count(packetPushStarted) - count(packetPulled) - count(packetRemoved) - count(packetDropped)))"
attr title "queue length"
attr unit pk
vector 25 MultiSeveralSatelliteSatUE_Standalone.iUpf.ppp[1].queue queueBitLength:vector ETV
attr autoWarmupFilter false
attr interpolationmode sample-hold
attr recordingmode vector
attr source "warmup(atomic(constant0(packetPushEnded) + sum(packetLength(packetPushStarted)) - sum(packetLength(packetPulled)) - sum(packetLength(packetRemoved)) - sum(packetLength(packetDropped))))"
attr title "queue bit length"
attr unit b
vector 26 MultiSeveralSatelliteSatUE_Standalone.iUpf.ppp[1].ppp transmissionState:vector ETV
attr interpolationmode sample-hold
attr recordingmode vector
attr source transmissionStateChanged
attr title "tx state"
vector 27 MultiSeveralSatelliteSatUE_Standalone.iUpf.ppp[2].queue queueLength:vector ETV
attr autoWarmupFilter false
attr interpolationmode sample-hold
attr recordingmode vector
attr source "warmup(atomic(constant0(packetPushEnded) + count(packetPushStarted) - count(packetPulled) - count(packetRemoved) - count(packetDropped)))"
attr title "queue length"
attr unit pk
vector 28 MultiSeveralSatelliteSatUE_Standalone.iUpf.ppp[2].queue queueBitLength:vector ETV
attr autoWarmupFilter false
attr interpolationmode sample-hold
attr recordingmode vector
attr source "warmup(atomic(constant0(packetPushEnded) + sum(packetLength(packetPushStarted)) - sum(packetLength(packetPulled)) - sum(packetLength(packetRemoved)) - sum(packetLength(packetDropped))))"
attr title "queue bit length"
attr unit b
vector 29 MultiSeveralSatelliteSatUE_Standalone.iUpf.ppp[2].ppp transmissionState:vector ETV
attr interpolationmode sample-hold
attr recordingmode vector
attr source transmissionStateChanged
attr title "tx state"
vector 30 MultiSeveralSatelliteSatUE_Standalone.iUpf.ppp[3].queue queueLength:vector ETV
attr autoWarmupFilter false
attr interpolationmode sample-hold
attr recordingmode vector
attr source "warmup(atomic(constant0(packetPushEnded) + count(packetPushStarted) - count(packetPulled) - count(packetRemoved) - count(packetDropped)))"
attr title "queue length"
attr unit pk
vector 31 MultiSeveralSatelliteSatUE_Standalone.iUpf.ppp[3].queue queueBitLength:vector ETV
attr autoWarmupFilter false
attr interpolationmode sample-hold
attr recordingmode vector
attr source "warmup(atomic(constant0(packetPushEnded) + sum(packetLength(packetPushStarted)) - sum(packetLength(packetPulled)) - sum(packetLength(packetRemoved)) - sum(packetLength(packetDropped))))"
attr title "queue bit length"
attr unit b
vector 32 MultiSeveralSatelliteSatUE_Standalone.iUpf.ppp[3].ppp transmissionState:vector ETV
attr interpolationmode sample-hold
attr recordingmode vector
attr source transmissionStateChanged
attr title "tx state"
vector 33 MultiSeveralSatelliteSatUE_Standalone.iUpf.pppIf.queue queueLength:vector ETV
attr autoWarmupFilter false
attr interpolationmode sample-hold
attr recordingmode vector
attr source "warmup(atomic(constant0(packetPushEnded) + count(packetPushStarted) - count(packetPulled) - count(packetRemoved) - count(packetDropped)))"
attr title "queue length"
attr unit pk
vector 34 MultiSeveralSatelliteSatUE_Standalone.iUpf.pppIf.queue queueBitLength:vector ETV
attr autoWarmupFilter false
attr interpolationmode sample-hold
attr recordingmode vector
attr source "warmup(atomic(constant0(packetPushEnded) + sum(packetLength(packetPushStarted)) - sum(packetLength(packetPulled)) - sum(packetLength(packetRemoved)) - sum(packetLength(packetDropped))))"
attr title "queue bit length"
attr unit b
vector 35 MultiSeveralSatelliteSatUE_Standalone.iUpf.pppIf.ppp transmissionState:vector ETV
attr interpolationmode sample-hold
attr recordingmode vector
attr source transmissionStateChanged
attr title "tx state"
vector 36 MultiSeveralSatelliteSatUE_Standalone.iUpf.udp passedUpPk:vector(count) ETV
attr interpolationmode none
attr recordingmode vector(count)
attr source packetSentToUpper
attr title "packets passed up, count"
vector 37 MultiSeveralSatelliteSatUE_Standalone.iUpf.udp droppedPkWrongPort:vector(count) ETV
attr interpolationmode none
attr recordingmode vector(count)
attr source packetDropReasonIsNoPortFound(packetDropped)
attr title "packets dropped (wrong port), count"
vector 38 MultiSeveralSatelliteSatUE_Standalone.iUpf.udp droppedPkBadChecksum:vector(count) ETV
attr interpolationmode none
attr recordingmode vector(count)
attr source packetDropReasonIsIncorrectlyReceived(packetDropped)
attr title "packets dropped (checksum error), count"
vector 39 MultiSeveralSatelliteSatUE_Standalone.gnbSat1.pppIf.queue queueLength:vector ETV
attr autoWarmupFilter false
attr interpolationmode sample-hold
attr recordingmode vector
attr source "warmup(atomic(constant0(packetPushEnded) + count(packetPushStarted) - count(packetPulled) - count(packetRemoved) - count(packetDropped)))"
attr title "queue length"
attr unit pk
vector 40 MultiSeveralSatelliteSatUE_Standalone.gnbSat1.pppIf.queue queueBitLength:vector ETV
attr autoWarmupFilter false
attr interpolationmode sample-hold
attr recordingmode vector
attr source "warmup(atomic(constant0(packetPushEnded) + sum(packetLength(packetPushStarted)) - sum(packetLength(packetPulled)) - sum(packetLength(packetRemoved)) - sum(packetLength(packetDropped))))"
attr title "queue bit length"
attr unit b
vector 41 MultiSeveralSatelliteSatUE_Standalone.gnbSat1.pppIf.ppp transmissionState:vector ETV
attr interpolationmode sample-hold
attr recordingmode vector
attr source transmissionStateChanged
attr title "tx state"
vector 42 MultiSeveralSatelliteSatUE_Standalone.gnbSat1.x2ppp[0].queue queueLength:vector ETV
attr autoWarmupFilter false
attr interpolationmode sample-hold
attr recordingmode vector
attr source "warmup(atomic(constant0(packetPushEnded) + count(packetPushStarted) - count(packetPulled) - count(packetRemoved) - count(packetDropped)))"
attr title "queue length"
attr unit pk
vector 43 MultiSeveralSatelliteSatUE_Standalone.gnbSat1.x2ppp[0].queue queueBitLength:vector ETV
attr autoWarmupFilter false
attr interpolationmode sample-hold
attr recordingmode vector
attr source "warmup(atomic(constant0(packetPushEnded) + sum(packetLength(packetPushStarted)) - sum(packetLength(packetPulled)) - sum(packetLength(packetRemoved)) - sum(packetLength(packetDropped))))"
attr title "queue bit length"
attr unit b
vector 44 MultiSeveralSatelliteSatUE_Standalone.gnbSat1.x2ppp[0].ppp transmissionState:vector ETV
attr interpolationmode sample-hold
attr recordingmode vector
attr source transmissionStateChanged
attr title "tx state"
vector 45 MultiSeveralSatelliteSatUE_Standalone.gnbSat1.x2ppp[1].queue queueLength:vector ETV
attr autoWarmupFilter false
attr interpolationmode sample-hold
attr recordingmode vector
attr source "warmup(atomic(constant0(packetPushEnded) + count(packetPushStarted) - count(packetPulled) - count(packetRemoved) - count(packetDropped)))"
attr title "queue length"
attr unit pk
vector 46 MultiSeveralSatelliteSatUE_Standalone.gnbSat1.x2ppp[1].queue queueBitLength:vector ETV
attr autoWarmupFilter false
attr interpolationmode sample-hold
attr recordingmode vector
attr source "warmup(atomic(constant0(packetPushEnded) + sum(packetLength(packetPushStarted)) - sum(packetLength(packetPulled)) - sum(packetLength(packetRemoved)) - sum(packetLength(packetDropped))))"
attr title "queue bit length"
attr unit b
vector 47 MultiSeveralSatelliteSatUE_Standalone.gnbSat1.x2ppp[1].ppp transmissionState:vector ETV
attr interpolationmode sample-hold
attr recordingmode vector
attr source transmissionStateChanged
attr title "tx state"
vector 48 MultiSeveralSatelliteSatUE_Standalone.gnbSat1.pppMEHostIf.queue queueLength:vector ETV
attr autoWarmupFilter false
attr interpolationmode sample-hold
attr recordingmode vector
attr source "warmup(atomic(constant0(packetPushEnded) + count(packetPushStarted) - count(packetPulled) - count(packetRemoved) - count(packetDropped)))"
attr title "queue length"
attr unit pk
vector 49 MultiSeveralSatelliteSatUE_Standalone.gnbSat1.pppMEHostIf.queue queueBitLength:vector ETV
attr autoWarmupFilter false
attr interpolationmode sample-hold
attr recordingmode vector
attr source "warmup(atomic(constant0(packetPushEnded) + sum(packetLength(packetPushStarted)) - sum(packetLength(packetPulled)) - sum(packetLength(packetRemoved)) - sum(packetLength(packetDropped))))"
attr title "queue bit length"
attr unit b
vector 50 MultiSeveralSatelliteSatUE_Standalone.gnbSat1.pppMEHostIf.ppp transmissionState:vector ETV
attr interpolationmode sample-hold
attr recordingmode vector
attr source transmissionStateChanged
attr title "tx state"
vector 51 MultiSeveralSatelliteSatUE_Standalone.gnbSat1.udp passedUpPk:vector(count) ETV
attr interpolationmode none
attr recordingmode vector(count)
attr source packetSentToUpper
attr title "packets passed up, count"
vector 52 MultiSeveralSatelliteSatUE_Standalone.gnbSat1.udp droppedPkWrongPort:vector(count) ETV
attr interpolationmode none
attr recordingmode vector(count)
attr source packetDropReasonIsNoPortFound(packetDropped)
attr title "packets dropped (wrong port), count"
vector 53 MultiSeveralSatelliteSatUE_Standalone.gnbSat1.udp droppedPkBadChecksum:vector(count) ETV
attr interpolationmode none
attr recordingmode vector(count)
attr source packetDropReasonIsIncorrectlyReceived(packetDropped)
attr title "packets dropped (checksum error), count"
vector 54 MultiSeveralSatelliteSatUE_Standalone.gnbSat2.pppIf.queue queueLength:vector ETV
attr autoWarmupFilter false
attr interpolationmode sample-hold
attr recordingmode vector
attr source "warmup(atomic(constant0(packetPushEnded) + count(packetPushStarted) - count(packetPulled) - count(packetRemoved) - count(packetDropped)))"
attr title "queue length"
attr unit pk
vector 55 MultiSeveralSatelliteSatUE_Standalone.gnbSat2.pppIf.queue queueBitLength:vector ETV
attr autoWarmupFilter false
attr interpolationmode sample-hold
attr recordingmode vector
attr source "warmup(atomic(constant0(packetPushEnded) + sum(packetLength(packetPushStarted)) - sum(packetLength(packetPulled)) - sum(packetLength(packetRemoved)) - sum(packetLength(packetDropped))))"
attr title "queue bit length"
attr unit b
vector 56 MultiSeveralSatelliteSatUE_Standalone.gnbSat2.pppIf.ppp transmissionState:vector ETV
attr interpolationmode sample-hold
attr recordingmode vector
attr source transmissionStateChanged
attr title "tx state"
vector 57 MultiSeveralSatelliteSatUE_Standalone.gnbSat2.x2ppp[0].queue queueLength:vector ETV
attr autoWarmupFilter false
attr interpolationmode sample-hold
attr recordingmode vector
attr source "warmup(atomic(constant0(packetPushEnded) + count(packetPushStarted) - count(packetPulled) - count(packetRemoved) - count(packetDropped)))"
attr title "queue length"
attr unit pk
vector 58 MultiSeveralSatelliteSatUE_Standalone.gnbSat2.x2ppp[0].queue queueBitLength:vector ETV
attr autoWarmupFilter false
attr interpolationmode sample-hold
attr recordingmode vector
attr source "warmup(atomic(constant0(packetPushEnded) + sum(packetLength(packetPushStarted)) - sum(packetLength(packetPulled)) - sum(packetLength(packetRemoved)) - sum(packetLength(packetDropped))))"
attr title "queue bit length"
attr unit b
vector 59 MultiSeveralSatelliteSatUE_Standalone.gnbSat2.x2ppp[0].ppp transmissionState:vector ETV
attr interpolationmode sample-hold
attr recordingmode vector
attr source transmissionStateChanged
attr title "tx state"
vector 60 MultiSeveralSatelliteSatUE_Standalone.gnbSat2.x2ppp[1].queue queueLength:vector ETV
attr autoWarmupFilter false
attr interpolationmode sample-hold
attr recordingmode vector
attr source "warmup(atomic(constant0(packetPushEnded) + count(packetPushStarted) - count(packetPulled) - count(packetRemoved) - count(packetDropped)))"
attr title "queue length"
attr unit pk
vector 61 MultiSeveralSatelliteSatUE_Standalone.gnbSat2.x2ppp[1].queue queueBitLength:vector ETV
attr autoWarmupFilter false
attr interpolationmode sample-hold
attr recordingmode vector
attr source "warmup(atomic(constant0(packetPushEnded) + sum(packetLength(packetPushStarted)) - sum(packetLength(packetPulled)) - sum(packetLength(packetRemoved)) - sum(packetLength(packetDropped))))"
attr title "queue bit length"
attr unit b
vector 62 MultiSeveralSatelliteSatUE_Standalone.gnbSat2.x2ppp[1].ppp transmissionState:vector ETV
attr interpolationmode sample-hold
attr recordingmode vector
attr source transmissionStateChanged
attr title "tx state"
vector 63 MultiSeveralSatelliteSatUE_Standalone.gnbSat2.pppMEHostIf.queue queueLength:vector ETV
attr autoWarmupFilter false
attr interpolationmode sample-hold
attr recordingmode vector
attr source "warmup(atomic(constant0(packetPushEnded) + count(packetPushStarted) - count(packetPulled) - count(packetRemoved) - count(packetDropped)))"
attr title "queue length"
attr unit pk
vector 64 MultiSeveralSatelliteSatUE_Standalone.gnbSat2.pppMEHostIf.queue queueBitLength:vector ETV
attr autoWarmupFilter false
attr interpolationmode sample-hold
attr recordingmode vector
attr source "warmup(atomic(constant0(packetPushEnded) + sum(packetLength(packetPushStarted)) - sum(packetLength(packetPulled)) - sum(packetLength(packetRemoved)) - sum(packetLength(packetDropped))))"
attr title "queue bit length"
attr unit b
vector 65 MultiSeveralSatelliteSatUE_Standalone.gnbSat2.pppMEHostIf.ppp transmissionState:vector ETV
attr interpolationmode sample-hold
attr recordingmode vector
attr source transmissionStateChanged
attr title "tx state"
vector 66 MultiSeveralSatelliteSatUE_Standalone.gnbSat2.udp passedUpPk:vector(count) ETV
attr interpolationmode none
attr recordingmode vector(count)
attr source packetSentToUpper
attr title "packets passed up, count"
vector 67 MultiSeveralSatelliteSatUE_Standalone.gnbSat2.udp droppedPkWrongPort:vector(count) ETV
attr interpolationmode none
attr recordingmode vector(count)
attr source packetDropReasonIsNoPortFound(packetDropped)
attr title "packets dropped (wrong port), count"
vector 68 MultiSeveralSatelliteSatUE_Standalone.gnbSat2.udp droppedPkBadChecksum:vector(count) ETV
attr interpolationmode none
attr recordingmode vector(count)
attr source packetDropReasonIsIncorrectlyReceived(packetDropped)
attr title "packets dropped (checksum error), count"
vector 69 MultiSeveralSatelliteSatUE_Standalone.gnbSat3.pppIf.queue queueLength:vector ETV
attr autoWarmupFilter false
attr interpolationmode sample-hold
attr recordingmode vector
attr source "warmup(atomic(constant0(packetPushEnded) + count(packetPushStarted) - count(packetPulled) - count(packetRemoved) - count(packetDropped)))"
attr title "queue length"
attr unit pk
vector 70 MultiSeveralSatelliteSatUE_Standalone.gnbSat3.pppIf.queue queueBitLength:vector ETV
attr autoWarmupFilter false
attr interpolationmode sample-hold
attr recordingmode vector
attr source "warmup(atomic(constant0(packetPushEnded) + sum(packetLength(packetPushStarted)) - sum(packetLength(packetPulled)) - sum(packetLength(packetRemoved)) - sum(packetLength(packetDropped))))"
attr title "queue bit length"
attr unit b
vector 71 MultiSeveralSatelliteSatUE_Standalone.gnbSat3.pppIf.ppp transmissionState:vector ETV
attr interpolationmode sample-hold
attr recordingmode vector
attr source transmissionStateChanged
attr title "tx state"
vector 72 MultiSeveralSatelliteSatUE_Standalone.gnbSat3.x2ppp[0].queue queueLength:vector ETV
attr autoWarmupFilter false
attr interpolationmode sample-hold
attr recordingmode vector
attr source "warmup(atomic(constant0(packetPushEnded) + count(packetPushStarted) - count(packetPulled) - count(packetRemoved) - count(packetDropped)))"
attr title "queue length"
attr unit pk
vector 73 MultiSeveralSatelliteSatUE_Standalone.gnbSat3.x2ppp[0].queue queueBitLength:vector ETV
attr autoWarmupFilter false
attr interpolationmode sample-hold
attr recordingmode vector
attr source "warmup(atomic(constant0(packetPushEnded) + sum(packetLength(packetPushStarted)) - sum(packetLength(packetPulled)) - sum(packetLength(packetRemoved)) - sum(packetLength(packetDropped))))"
attr title "queue bit length"
attr unit b
vector 74 MultiSeveralSatelliteSatUE_Standalone.gnbSat3.x2ppp[0].ppp transmissionState:vector ETV
attr interpolationmode sample-hold
attr recordingmode vector
attr source transmissionStateChanged
attr title "tx state"
vector 75 MultiSeveralSatelliteSatUE_Standalone.gnbSat3.x2ppp[1].queue queueLength:vector ETV
attr autoWarmupFilter false
attr interpolationmode sample-hold
attr recordingmode vector
attr source "warmup(atomic(constant0(packetPushEnded) + count(packetPushStarted) - count(packetPulled) - count(packetRemoved) - count(packetDropped)))"
attr title "queue length"
attr unit pk
vector 76 MultiSeveralSatelliteSatUE_Standalone.gnbSat3.x2ppp[1].queue queueBitLength:vector ETV
attr autoWarmupFilter false
attr interpolationmode sample-hold
attr recordingmode vector
attr source "warmup(atomic(constant0(packetPushEnded) + sum(packetLength(packetPushStarted)) - sum(packetLength(packetPulled)) - sum(packetLength(packetRemoved)) - sum(packetLength(packetDropped))))"
attr title "queue bit length"
attr unit b
vector 77 MultiSeveralSatelliteSatUE_Standalone.gnbSat3.x2ppp[1].ppp transmissionState:vector ETV
attr interpolationmode sample-hold
attr recordingmode vector
attr source transmissionStateChanged
attr title "tx state"
vector 78 MultiSeveralSatelliteSatUE_Standalone.gnbSat3.pppMEHostIf.queue queueLength:vector ETV
attr autoWarmupFilter false
attr interpolationmode sample-hold
attr recordingmode vector
attr source "warmup(atomic(constant0(packetPushEnded) + count(packetPushStarted) - count(packetPulled) - count(packetRemoved) - count(packetDropped)))"
attr title "queue length"
attr unit pk
vector 79 MultiSeveralSatelliteSatUE_Standalone.gnbSat3.pppMEHostIf.queue queueBitLength:vector ETV
attr autoWarmupFilter false
attr interpolationmode sample-hold
attr recordingmode vector
attr source "warmup(atomic(constant0(packetPushEnded) + sum(packetLength(packetPushStarted)) - sum(packetLength(packetPulled)) - sum(packetLength(packetRemoved)) - sum(packetLength(packetDropped))))"
attr title "queue bit length"
attr unit b
vector 80 MultiSeveralSatelliteSatUE_Standalone.gnbSat3.pppMEHostIf.ppp transmissionState:vector ETV
attr interpolationmode sample-hold
attr recordingmode vector
attr source transmissionStateChanged
attr title "tx state"
vector 81 MultiSeveralSatelliteSatUE_Standalone.gnbSat3.udp passedUpPk:vector(count) ETV
attr interpolationmode none
attr recordingmode vector(count)
attr source packetSentToUpper
attr title "packets passed up, count"
vector 82 MultiSeveralSatelliteSatUE_Standalone.gnbSat3.udp droppedPkWrongPort:vector(count) ETV
attr interpolationmode none
attr recordingmode vector(count)
attr source packetDropReasonIsNoPortFound(packetDropped)
attr title "packets dropped (wrong port), count"
vector 83 MultiSeveralSatelliteSatUE_Standalone.gnbSat3.udp droppedPkBadChecksum:vector(count) ETV
attr interpolationmode none
attr recordingmode vector(count)
attr source packetDropReasonIsIncorrectlyReceived(packetDropped)
attr title "packets dropped (checksum error), count"
vector 84 MultiSeveralSatelliteSatUE_Standalone.ue[0].udp passedUpPk:vector(count) ETV
attr interpolationmode none
attr recordingmode vector(count)
attr source packetSentToUpper
attr title "packets passed up, count"
vector 85 MultiSeveralSatelliteSatUE_Standalone.ue[0].udp droppedPkWrongPort:vector(count) ETV
attr interpolationmode none
attr recordingmode vector(count)
attr source packetDropReasonIsNoPortFound(packetDropped)
attr title "packets dropped (wrong port), count"
vector 86 MultiSeveralSatelliteSatUE_Standalone.ue[0].udp droppedPkBadChecksum:vector(count) ETV
attr interpolationmode none
attr recordingmode vector(count)
attr source packetDropReasonIsIncorrectlyReceived(packetDropped)
attr title "packets dropped (checksum error), count"
vector 87 MultiSeveralSatelliteSatUE_Standalone.ue[1].udp passedUpPk:vector(count) ETV
attr interpolationmode none
attr recordingmode vector(count)
attr source packetSentToUpper
attr title "packets passed up, count"
vector 88 MultiSeveralSatelliteSatUE_Standalone.ue[1].udp droppedPkWrongPort:vector(count) ETV
attr interpolationmode none
attr recordingmode vector(count)
attr source packetDropReasonIsNoPortFound(packetDropped)
attr title "packets dropped (wrong port), count"
vector 89 MultiSeveralSatelliteSatUE_Standalone.ue[1].udp droppedPkBadChecksum:vector(count) ETV
attr interpolationmode none
attr recordingmode vector(count)
attr source packetDropReasonIsIncorrectlyReceived(packetDropped)
attr title "packets dropped (checksum error), count"
vector 90 MultiSeveralSatelliteSatUE_Standalone.ue[2].udp passedUpPk:vector(count) ETV
attr interpolationmode none
attr recordingmode vector(count)
attr source packetSentToUpper
attr title "packets passed up, count"
vector 91 MultiSeveralSatelliteSatUE_Standalone.ue[2].udp droppedPkWrongPort:vector(count) ETV
attr interpolationmode none
attr recordingmode vector(count)
attr source packetDropReasonIsNoPortFound(packetDropped)
attr title "packets dropped (wrong port), count"
vector 92 MultiSeveralSatelliteSatUE_Standalone.ue[2].udp droppedPkBadChecksum:vector(count) ETV
attr interpolationmode none
attr recordingmode vector(count)
attr source packetDropReasonIsIncorrectlyReceived(packetDropped)
attr title "packets dropped (checksum error), count"
vector 93 MultiSeveralSatelliteSatUE_Standalone.ue[3].udp passedUpPk:vector(count) ETV
attr interpolationmode none
attr recordingmode vector(count)
attr source packetSentToUpper
attr title "packets passed up, count"
vector 94 MultiSeveralSatelliteSatUE_Standalone.ue[3].udp droppedPkWrongPort:vector(count) ETV
attr interpolationmode none
attr recordingmode vector(count)
attr source packetDropReasonIsNoPortFound(packetDropped)
attr title "packets dropped (wrong port), count"
vector 95 MultiSeveralSatelliteSatUE_Standalone.ue[3].udp droppedPkBadChecksum:vector(count) ETV
attr interpolationmode none
attr recordingmode vector(count)
attr source packetDropReasonIsIncorrectlyReceived(packetDropped)
attr title "packets dropped (checksum error), count"
vector 96 MultiSeveralSatelliteSatUE_Standalone.ue[4].udp passedUpPk:vector(count) ETV
attr interpolationmode none
attr recordingmode vector(count)
attr source packetSentToUpper
attr title "packets passed up, count"
vector 97 MultiSeveralSatelliteSatUE_Standalone.ue[4].udp droppedPkWrongPort:vector(count) ETV
attr interpolationmode none
attr recordingmode vector(count)
attr source packetDropReasonIsNoPortFound(packetDropped)
attr title "packets dropped (wrong port), count"
vector 98 MultiSeveralSatelliteSatUE_Standalone.ue[4].udp droppedPkBadChecksum:vector(count) ETV
attr interpolationmode none
attr recordingmode vector(count)
attr source packetDropReasonIsIncorrectlyReceived(packetDropped)
attr title "packets dropped (checksum error), count"
vector 99 MultiSeveralSatelliteSatUE_Standalone.ue[5].udp passedUpPk:vector(count) ETV
attr interpolationmode none
attr recordingmode vector(count)
attr source packetSentToUpper
attr title "packets passed up, count"
vector 100 MultiSeveralSatelliteSatUE_Standalone.ue[5].udp droppedPkWrongPort:vector(count) ETV
attr interpolationmode none
attr recordingmode vector(count)
attr source packetDropReasonIsNoPortFound(packetDropped)
attr title "packets dropped (wrong port), count"
vector 101 MultiSeveralSatelliteSatUE_Standalone.ue[5].udp droppedPkBadChecksum:vector(count) ETV
attr interpolationmode none
attr recordingmode vector(count)
attr source packetDropReasonIsIncorrectlyReceived(packetDropped)
attr title "packets dropped (checksum error), count"
vector 102 MultiSeveralSatelliteSatUE_Standalone.ue[6].udp passedUpPk:vector(count) ETV
attr interpolationmode none
attr recordingmode vector(count)
attr source packetSentToUpper
attr title "packets passed up, count"
vector 103 MultiSeveralSatelliteSatUE_Standalone.ue[6].udp droppedPkWrongPort:vector(count) ETV
attr interpolationmode none
attr recordingmode vector(count)
attr source packetDropReasonIsNoPortFound(packetDropped)
attr title "packets dropped (wrong port), count"
vector 104 MultiSeveralSatelliteSatUE_Standalone.ue[6].udp droppedPkBadChecksum:vector(count) ETV
attr interpolationmode none
attr recordingmode vector(count)
attr source packetDropReasonIsIncorrectlyReceived(packetDropped)
attr title "packets dropped (checksum error), count"
vector 105 MultiSeveralSatelliteSatUE_Standalone.ue[7].udp passedUpPk:vector(count) ETV
attr interpolationmode none
attr recordingmode vector(count)
attr source packetSentToUpper
attr title "packets passed up, count"
vector 106 MultiSeveralSatelliteSatUE_Standalone.ue[7].udp droppedPkWrongPort:vector(count) ETV
attr interpolationmode none
attr recordingmode vector(count)
attr source packetDropReasonIsNoPortFound(packetDropped)
attr title "packets dropped (wrong port), count"
vector 107 MultiSeveralSatelliteSatUE_Standalone.ue[7].udp droppedPkBadChecksum:vector(count) ETV
attr interpolationmode none
attr recordingmode vector(count)
attr source packetDropReasonIsIncorrectlyReceived(packetDropped)
attr title "packets dropped (checksum error), count"
vector 108 MultiSeveralSatelliteSatUE_Standalone.ue[8].udp passedUpPk:vector(count) ETV
attr interpolationmode none
attr recordingmode vector(count)
attr source packetSentToUpper
attr title "packets passed up, count"
vector 109 MultiSeveralSatelliteSatUE_Standalone.ue[8].udp droppedPkWrongPort:vector(count) ETV
attr interpolationmode none
attr recordingmode vector(count)
attr source packetDropReasonIsNoPortFound(packetDropped)
attr title "packets dropped (wrong port), count"
vector 110 MultiSeveralSatelliteSatUE_Standalone.ue[8].udp droppedPkBadChecksum:vector(count) ETV
attr interpolationmode none
attr recordingmode vector(count)
attr source packetDropReasonIsIncorrectlyReceived(packetDropped)
attr title "packets dropped (checksum error), count"
vector 111 MultiSeveralSatelliteSatUE_Standalone.ue[9].udp passedUpPk:vector(count) ETV
attr interpolationmode none
attr recordingmode vector(count)
attr source packetSentToUpper
attr title "packets passed up, count"
vector 112 MultiSeveralSatelliteSatUE_Standalone.ue[9].udp droppedPkWrongPort:vector(count) ETV
attr interpolationmode none
attr recordingmode vector(count)
attr source packetDropReasonIsNoPortFound(packetDropped)
attr title "packets dropped (wrong port), count"
vector 113 MultiSeveralSatelliteSatUE_Standalone.ue[9].udp droppedPkBadChecksum:vector(count) ETV
attr interpolationmode none
attr recordingmode vector(count)
attr source packetDropReasonIsIncorrectlyReceived(packetDropped)
attr title "packets dropped (checksum error), count"
vector 114 MultiSeveralSatelliteSatUE_Standalone.ue[0].cellularNic.phy servingCell:vector ETV
attr recordingmode vector
attr source servingCell
attr title "ID of the serving cell for the UE"
attr unit ""
vector 115 MultiSeveralSatelliteSatUE_Standalone.ue[0].cellularNic.nrPhy servingCell:vector ETV
attr recordingmode vector
attr source servingCell
attr title "ID of the serving cell for the UE"
attr unit ""
vector 116 MultiSeveralSatelliteSatUE_Standalone.ue[1].cellularNic.phy servingCell:vector ETV
attr recordingmode vector
attr source servingCell
attr title "ID of the serving cell for the UE"
attr unit ""
vector 117 MultiSeveralSatelliteSatUE_Standalone.ue[1].cellularNic.nrPhy servingCell:vector ETV
attr recordingmode vector
attr source servingCell
attr title "ID of the serving cell for the UE"
attr unit ""
vector 118 MultiSeveralSatelliteSatUE_Standalone.ue[2].cellularNic.phy servingCell:vector ETV
attr recordingmode vector
attr source servingCell
attr title "ID of the serving cell for the UE"
attr unit ""
vector 119 MultiSeveralSatelliteSatUE_Standalone.ue[2].cellularNic.nrPhy servingCell:vector ETV
attr recordingmode vector
attr source servingCell
attr title "ID of the serving cell for the UE"
attr unit ""
vector 120 MultiSeveralSatelliteSatUE_Standalone.ue[3].cellularNic.phy servingCell:vector ETV
attr recordingmode vector
attr source servingCell
attr title "ID of the serving cell for the UE"
attr unit ""
vector 121 MultiSeveralSatelliteSatUE_Standalone.ue[3].cellularNic.nrPhy servingCell:vector ETV
attr recordingmode vector
attr source servingCell
attr title "ID of the serving cell for the UE"
attr unit ""
vector 122 MultiSeveralSatelliteSatUE_Standalone.ue[4].cellularNic.phy servingCell:vector ETV
attr recordingmode vector
attr source servingCell
attr title "ID of the serving cell for the UE"
attr unit ""
vector 123 MultiSeveralSatelliteSatUE_Standalone.ue[4].cellularNic.nrPhy servingCell:vector ETV
attr recordingmode vector
attr source servingCell
attr title "ID of the serving cell for the UE"
attr unit ""
vector 124 MultiSeveralSatelliteSatUE_Standalone.ue[5].cellularNic.phy servingCell:vector ETV
attr recordingmode vector
attr source servingCell
attr title "ID of the serving cell for the UE"
attr unit ""
vector 125 MultiSeveralSatelliteSatUE_Standalone.ue[5].cellularNic.nrPhy servingCell:vector ETV
attr recordingmode vector
attr source servingCell
attr title "ID of the serving cell for the UE"
attr unit ""
vector 126 MultiSeveralSatelliteSatUE_Standalone.ue[6].cellularNic.phy servingCell:vector ETV
attr recordingmode vector
attr source servingCell
attr title "ID of the serving cell for the UE"
attr unit ""
vector 127 MultiSeveralSatelliteSatUE_Standalone.ue[6].cellularNic.nrPhy servingCell:vector ETV
attr recordingmode vector
attr source servingCell
attr title "ID of the serving cell for the UE"
attr unit ""
vector 128 MultiSeveralSatelliteSatUE_Standalone.ue[7].cellularNic.phy servingCell:vector ETV
attr recordingmode vector
attr source servingCell
attr title "ID of the serving cell for the UE"
attr unit ""
vector 129 MultiSeveralSatelliteSatUE_Standalone.ue[7].cellularNic.nrPhy servingCell:vector ETV
attr recordingmode vector
attr source servingCell
attr title "ID of the serving cell for the UE"
attr unit ""
vector 130 MultiSeveralSatelliteSatUE_Standalone.ue[8].cellularNic.phy servingCell:vector ETV
attr recordingmode vector
attr source servingCell
attr title "ID of the serving cell for the UE"
attr unit ""
vector 131 MultiSeveralSatelliteSatUE_Standalone.ue[8].cellularNic.nrPhy servingCell:vector ETV
attr recordingmode vector
attr source servingCell
attr title "ID of the serving cell for the UE"
attr unit ""
vector 132 MultiSeveralSatelliteSatUE_Standalone.ue[9].cellularNic.phy servingCell:vector ETV
attr recordingmode vector
attr source servingCell
attr title "ID of the serving cell for the UE"
attr unit ""
vector 133 MultiSeveralSatelliteSatUE_Standalone.ue[9].cellularNic.nrPhy servingCell:vector ETV
attr recordingmode vector
attr source servingCell
attr title "ID of the serving cell for the UE"
attr unit ""
vector 134 MultiSeveralSatelliteSatUE_Standalone.gnbSat1.x2ppp[0].queue incomingPacketLengths:vector ETV
attr interpolationmode none
attr recordingmode vector
attr source packetLength(packetPushStarted)
attr title "incoming packet lengths"
attr unit b
vector 135 MultiSeveralSatelliteSatUE_Standalone.gnbSat1.x2ppp[0].queue queueingTime:vector ETV
attr interpolationmode none
attr recordingmode vector
attr source queueingTime(packetPulled)
attr title "queueing times"
attr unit s
vector 136 MultiSeveralSatelliteSatUE_Standalone.gnbSat1.x2ppp[0].queue outgoingPacketLengths:vector ETV
attr interpolationmode none
attr recordingmode vector
attr source packetLength(packetPulled)
attr title "outgoing packet lengths"
attr unit b
vector 137 MultiSeveralSatelliteSatUE_Standalone.gnbSat1.x2ppp[0].ppp rcvdPkFromHl:vector(packetBytes) ETV
attr interpolationmode none
attr recordingmode vector(packetBytes)
attr source packetReceivedFromUpper
attr title "packets received from higher layer, packetBytes"
vector 138 MultiSeveralSatelliteSatUE_Standalone.gnbSat1.x2ppp[0].ppp txPk:vector(packetBytes) ETV
attr interpolationmode none
attr recordingmode vector(packetBytes)
attr source packetSentToLower
attr title "packets transmitted, packetBytes"
vector 139 MultiSeveralSatelliteSatUE_Standalone.gnbSat1.x2ppp[1].queue incomingPacketLengths:vector ETV
attr interpolationmode none
attr recordingmode vector
attr source packetLength(packetPushStarted)
attr title "incoming packet lengths"
attr unit b
vector 140 MultiSeveralSatelliteSatUE_Standalone.gnbSat1.x2ppp[1].queue queueingTime:vector ETV
attr interpolationmode none
attr recordingmode vector
attr source queueingTime(packetPulled)
attr title "queueing times"
attr unit s
vector 141 MultiSeveralSatelliteSatUE_Standalone.gnbSat1.x2ppp[1].queue outgoingPacketLengths:vector ETV
attr interpolationmode none
attr recordingmode vector
attr source packetLength(packetPulled)
attr title "outgoing packet lengths"
attr unit b
vector 142 MultiSeveralSatelliteSatUE_Standalone.gnbSat1.x2ppp[1].ppp rcvdPkFromHl:vector(packetBytes) ETV
attr interpolationmode none
attr recordingmode vector(packetBytes)
attr source packetReceivedFromUpper
attr title "packets received from higher layer, packetBytes"
vector 143 MultiSeveralSatelliteSatUE_Standalone.gnbSat1.x2ppp[1].ppp txPk:vector(packetBytes) ETV
attr interpolationmode none
attr recordingmode vector(packetBytes)
attr source packetSentToLower
attr title "packets transmitted, packetBytes"
vector 144 MultiSeveralSatelliteSatUE_Standalone.gnbSat2.x2ppp[0].queue incomingPacketLengths:vector ETV
attr interpolationmode none
attr recordingmode vector
attr source packetLength(packetPushStarted)
attr title "incoming packet lengths"
attr unit b
vector 145 MultiSeveralSatelliteSatUE_Standalone.gnbSat2.x2ppp[0].queue queueingTime:vector ETV
attr interpolationmode none
attr recordingmode vector
attr source queueingTime(packetPulled)
attr title "queueing times"
attr unit s
vector 146 MultiSeveralSatelliteSatUE_Standalone.gnbSat2.x2ppp[0].queue outgoingPacketLengths:vector ETV
attr interpolationmode none
attr recordingmode vector
attr source packetLength(packetPulled)
attr title "outgoing packet lengths"
attr unit b
vector 147 MultiSeveralSatelliteSatUE_Standalone.gnbSat2.x2ppp[0].ppp rcvdPkFromHl:vector(packetBytes) ETV
attr interpolationmode none
attr recordingmode vector(packetBytes)
attr source packetReceivedFromUpper
attr title "packets received from higher layer, packetBytes"
vector 148 MultiSeveralSatelliteSatUE_Standalone.gnbSat2.x2ppp[0].ppp txPk:vector(packetBytes) ETV
attr interpolationmode none
attr recordingmode vector(packetBytes)
attr source packetSentToLower
attr title "packets transmitted, packetBytes"
vector 149 MultiSeveralSatelliteSatUE_Standalone.gnbSat2.x2ppp[1].queue incomingPacketLengths:vector ETV
attr interpolationmode none
attr recordingmode vector
attr source packetLength(packetPushStarted)
attr title "incoming packet lengths"
attr unit b
vector 150 MultiSeveralSatelliteSatUE_Standalone.gnbSat2.x2ppp[1].queue queueingTime:vector ETV
attr interpolationmode none
attr recordingmode vector
attr source queueingTime(packetPulled)
attr title "queueing times"
attr unit s
vector 151 MultiSeveralSatelliteSatUE_Standalone.gnbSat2.x2ppp[1].queue outgoingPacketLengths:vector ETV
attr interpolationmode none
attr recordingmode vector
attr source packetLength(packetPulled)
attr title "outgoing packet lengths"
attr unit b
vector 152 MultiSeveralSatelliteSatUE_Standalone.gnbSat2.x2ppp[1].ppp rcvdPkFromHl:vector(packetBytes) ETV
attr interpolationmode none
attr recordingmode vector(packetBytes)
attr source packetReceivedFromUpper
attr title "packets received from higher layer, packetBytes"
vector 153 MultiSeveralSatelliteSatUE_Standalone.gnbSat2.x2ppp[1].ppp txPk:vector(packetBytes) ETV
attr interpolationmode none
attr recordingmode vector(packetBytes)
attr source packetSentToLower
attr title "packets transmitted, packetBytes"
vector 154 MultiSeveralSatelliteSatUE_Standalone.gnbSat3.x2ppp[0].queue incomingPacketLengths:vector ETV
attr interpolationmode none
attr recordingmode vector
attr source packetLength(packetPushStarted)
attr title "incoming packet lengths"
attr unit b
vector 155 MultiSeveralSatelliteSatUE_Standalone.gnbSat3.x2ppp[0].queue queueingTime:vector ETV
attr interpolationmode none
attr recordingmode vector
attr source queueingTime(packetPulled)
attr title "queueing times"
attr unit s
vector 156 MultiSeveralSatelliteSatUE_Standalone.gnbSat3.x2ppp[0].queue outgoingPacketLengths:vector ETV
attr interpolationmode none
attr recordingmode vector
attr source packetLength(packetPulled)
attr title "outgoing packet lengths"
attr unit b
vector 157 MultiSeveralSatelliteSatUE_Standalone.gnbSat3.x2ppp[0].ppp rcvdPkFromHl:vector(packetBytes) ETV
attr interpolationmode none
attr recordingmode vector(packetBytes)
attr source packetReceivedFromUpper
attr title "packets received from higher layer, packetBytes"
vector 158 MultiSeveralSatelliteSatUE_Standalone.gnbSat3.x2ppp[0].ppp txPk:vector(packetBytes) ETV
attr interpolationmode none
attr recordingmode vector(packetBytes)
attr source packetSentToLower
attr title "packets transmitted, packetBytes"
vector 159 MultiSeveralSatelliteSatUE_Standalone.gnbSat3.x2ppp[1].queue incomingPacketLengths:vector ETV
attr interpolationmode none
attr recordingmode vector
attr source packetLength(packetPushStarted)
attr title "incoming packet lengths"
attr unit b
vector 160 MultiSeveralSatelliteSatUE_Standalone.gnbSat3.x2ppp[1].queue queueingTime:vector ETV
attr interpolationmode none
attr recordingmode vector
attr source queueingTime(packetPulled)
attr title "queueing times"
attr unit s
vector 161 MultiSeveralSatelliteSatUE_Standalone.gnbSat3.x2ppp[1].queue outgoingPacketLengths:vector ETV
attr interpolationmode none
attr recordingmode vector
attr source packetLength(packetPulled)
attr title "outgoing packet lengths"
attr unit b
vector 162 MultiSeveralSatelliteSatUE_Standalone.gnbSat3.x2ppp[1].ppp rcvdPkFromHl:vector(packetBytes) ETV
attr interpolationmode none
attr recordingmode vector(packetBytes)
attr source packetReceivedFromUpper
attr title "packets received from higher layer, packetBytes"
vector 163 MultiSeveralSatelliteSatUE_Standalone.gnbSat3.x2ppp[1].ppp txPk:vector(packetBytes) ETV
attr interpolationmode none
attr recordingmode vector(packetBytes)
attr source packetSentToLower
attr title "packets transmitted, packetBytes"
vector 164 MultiSeveralSatelliteSatUE_Standalone.server.udp packetSent:vector(packetBytes) ETV
attr interpolationmode none
attr recordingmode vector(packetBytes)
attr source packetSent
attr title "packets sent, packetBytes"
vector 165 MultiSeveralSatelliteSatUE_Standalone.server.ppp[0].queue incomingPacketLengths:vector ETV
attr interpolationmode none
attr recordingmode vector
attr source packetLength(packetPushStarted)
attr title "incoming packet lengths"
attr unit b
vector 166 MultiSeveralSatelliteSatUE_Standalone.server.ppp[0].queue queueingTime:vector ETV
attr interpolationmode none
attr recordingmode vector
attr source queueingTime(packetPulled)
attr title "queueing times"
attr unit s
vector 167 MultiSeveralSatelliteSatUE_Standalone.server.ppp[0].queue outgoingPacketLengths:vector ETV
attr interpolationmode none
attr recordingmode vector
attr source packetLength(packetPulled)
attr title "outgoing packet lengths"
attr unit b
vector 168 MultiSeveralSatelliteSatUE_Standalone.server.ppp[0].ppp rcvdPkFromHl:vector(packetBytes) ETV
attr interpolationmode none
attr recordingmode vector(packetBytes)
attr source packetReceivedFromUpper
attr title "packets received from higher layer, packetBytes"
vector 169 MultiSeveralSatelliteSatUE_Standalone.server.ppp[0].ppp txPk:vector(packetBytes) ETV
attr interpolationmode none
attr recordingmode vector(packetBytes)
attr source packetSentToLower
attr title "packets transmitted, packetBytes"
vector 170 MultiSeveralSatelliteSatUE_Standalone.router.ppp[0].ppp rxPkOk:vector(packetBytes) ETV
attr interpolationmode none
attr recordingmode vector(packetBytes)
attr source rxPkOk
attr title "packets received OK, packetBytes"
vector 171 MultiSeveralSatelliteSatUE_Standalone.router.ppp[0].ppp passedUpPk:vector(packetBytes) ETV
attr interpolationmode none
attr recordingmode vector(packetBytes)
attr source packetSentToUpper
attr title "packets passed to higher layer, packetBytes"
vector 172 MultiSeveralSatelliteSatUE_Standalone.router.ppp[1].queue incomingPacketLengths:vector ETV
attr interpolationmode none
attr recordingmode vector
attr source packetLength(packetPushStarted)
attr title "incoming packet lengths"
attr unit b
vector 173 MultiSeveralSatelliteSatUE_Standalone.router.ppp[1].queue queueingTime:vector ETV
attr interpolationmode none
attr recordingmode vector
attr source queueingTime(packetPulled)
attr title "queueing times"
attr unit s
vector 174 MultiSeveralSatelliteSatUE_Standalone.router.ppp[1].queue outgoingPacketLengths:vector ETV
attr interpolationmode none
attr recordingmode vector
attr source packetLength(packetPulled)
attr title "outgoing packet lengths"
attr unit b
vector 175 MultiSeveralSatelliteSatUE_Standalone.router.ppp[1].ppp rcvdPkFromHl:vector(packetBytes) ETV
attr interpolationmode none
attr recordingmode vector(packetBytes)
attr source packetReceivedFromUpper
attr title "packets received from higher layer, packetBytes"
vector 176 MultiSeveralSatelliteSatUE_Standalone.router.ppp[1].ppp txPk:vector(packetBytes) ETV
attr interpolationmode none
attr recordingmode vector(packetBytes)
attr source packetSentToLower
attr title "packets transmitted, packetBytes"
vector 177 MultiSeveralSatelliteSatUE_Standalone.upf.pppIf.ppp rxPkOk:vector(packetBytes) ETV
attr interpolationmode none
attr recordingmode vector(packetBytes)
attr source rxPkOk
attr title "packets received OK, packetBytes"
vector 178 MultiSeveralSatelliteSatUE_Standalone.upf.pppIf.ppp passedUpPk:vector(packetBytes) ETV
attr interpolationmode none
attr recordingmode vector(packetBytes)
attr source packetSentToUpper
attr title "packets passed to higher layer, packetBytes"
vector 179 MultiSeveralSatelliteSatUE_Standalone.upf.udp packetSent:vector(packetBytes) ETV
attr interpolationmode none
attr recordingmode vector(packetBytes)
attr source packetSent
attr title "packets sent, packetBytes"
vector 180 MultiSeveralSatelliteSatUE_Standalone.upf.ppp[0].queue incomingPacketLengths:vector ETV
attr interpolationmode none
attr recordingmode vector
attr source packetLength(packetPushStarted)
attr title "incoming packet lengths"
attr unit b
vector 181 MultiSeveralSatelliteSatUE_Standalone.upf.ppp[0].queue queueingTime:vector ETV
attr interpolationmode none
attr recordingmode vector
attr source queueingTime(packetPulled)
attr title "queueing times"
attr unit s
vector 182 MultiSeveralSatelliteSatUE_Standalone.upf.ppp[0].queue outgoingPacketLengths:vector ETV
attr interpolationmode none
attr recordingmode vector
attr source packetLength(packetPulled)
attr title "outgoing packet lengths"
attr unit b
vector 183 MultiSeveralSatelliteSatUE_Standalone.upf.ppp[0].ppp rcvdPkFromHl:vector(packetBytes) ETV
attr interpolationmode none
attr recordingmode vector(packetBytes)
attr source packetReceivedFromUpper
attr title "packets received from higher layer, packetBytes"
vector 184 MultiSeveralSatelliteSatUE_Standalone.upf.ppp[0].ppp txPk:vector(packetBytes) ETV
attr interpolationmode none
attr recordingmode vector(packetBytes)
attr source packetSentToLower
attr title "packets transmitted, packetBytes"
vector 185 MultiSeveralSatelliteSatUE_Standalone.iUpf.ppp[0].ppp rxPkOk:vector(packetBytes) ETV
attr interpolationmode none
attr recordingmode vector(packetBytes)
attr source rxPkOk
attr title "packets received OK, packetBytes"
vector 186 MultiSeveralSatelliteSatUE_Standalone.iUpf.ppp[0].ppp passedUpPk:vector(packetBytes) ETV
attr interpolationmode none
attr recordingmode vector(packetBytes)
attr source packetSentToUpper
attr title "packets passed to higher layer, packetBytes"
vector 187 MultiSeveralSatelliteSatUE_Standalone.iUpf.ppp[2].queue incomingPacketLengths:vector ETV
attr interpolationmode none
attr recordingmode vector
attr source packetLength(packetPushStarted)
attr title "incoming packet lengths"
attr unit b
vector 188 MultiSeveralSatelliteSatUE_Standalone.iUpf.ppp[2].queue queueingTime:vector ETV
attr interpolationmode none
attr recordingmode vector
attr source queueingTime(packetPulled)
attr title "queueing times"
attr unit s
vector 189 MultiSeveralSatelliteSatUE_Standalone.iUpf.ppp[2].queue outgoingPacketLengths:vector ETV
attr interpolationmode none
attr recordingmode vector
attr source packetLength(packetPulled)
attr title "outgoing packet lengths"
attr unit b
vector 190 MultiSeveralSatelliteSatUE_Standalone.iUpf.ppp[2].ppp rcvdPkFromHl:vector(packetBytes) ETV
attr interpolationmode none
attr recordingmode vector(packetBytes)
attr source packetReceivedFromUpper
attr title "packets received from higher layer, packetBytes"
vector 191 MultiSeveralSatelliteSatUE_Standalone.iUpf.ppp[2].ppp txPk:vector(packetBytes) ETV
attr interpolationmode none
attr recordingmode vector(packetBytes)
attr source packetSentToLower
attr title "packets transmitted, packetBytes"
vector 192 MultiSeveralSatelliteSatUE_Standalone.gnbSat1.cellularNic.mac avgServedBlocksUl:vector ETV
attr recordingmode vector
attr source avgServedBlocksUl
attr title "Average number of allocated Resource Blocks in the Dl"
attr unit blocks
vector 193 MultiSeveralSatelliteSatUE_Standalone.gnbSat1.cellularNic.mac avgServedBlocksDl:vector ETV
attr recordingmode vector
attr source avgServedBlocksDl
attr title "Average number of allocated Resource Blocks in the Dl"
attr unit blocks
vector 194 MultiSeveralSatelliteSatUE_Standalone.gnbSat2.cellularNic.mac avgServedBlocksUl:vector ETV
attr recordingmode vector
attr source avgServedBlocksUl
attr title "Average number of allocated Resource Blocks in the Dl"
attr unit blocks
vector 195 MultiSeveralSatelliteSatUE_Standalone.gnbSat2.cellularNic.mac avgServedBlocksDl:vector ETV
attr recordingmode vector
attr source avgServedBlocksDl
attr title "Average number of allocated Resource Blocks in the Dl"
attr unit blocks
vector 196 MultiSeveralSatelliteSatUE_Standalone.gnbSat3.cellularNic.mac avgServedBlocksUl:vector ETV
attr recordingmode vector
attr source avgServedBlocksUl
attr title "Average number of allocated Resource Blocks in the Dl"
attr unit blocks
vector 197 MultiSeveralSatelliteSatUE_Standalone.gnbSat3.cellularNic.mac avgServedBlocksDl:vector ETV
attr recordingmode vector
attr source avgServedBlocksDl
attr title "Average number of allocated Resource Blocks in the Dl"
attr unit blocks
vector 198 MultiSeveralSatelliteSatUE_Standalone.ue[0].cellularNic.nrChannelModel[0] measuredSinrUl:vector ETV
attr recordingmode vector
attr source measuredSinrUl
attr title "SINR measured at feedback computation, UL"
attr unit dB
vector 199 MultiSeveralSatelliteSatUE_Standalone.ue[0].cellularNic.nrChannelModel[0] measuredSinrDl:vector ETV
attr recordingmode vector
attr source measuredSinrDl
attr title "SINR measured at feedback computation, DL"
attr unit dB
vector 200 MultiSeveralSatelliteSatUE_Standalone.gnbSat2.cellularNic.mac receivedPacketFromLowerLayer:vector(packetBytes) ETV
attr interpolationmode none
attr recordingmode vector(packetBytes)
attr source receivedPacketFromLowerLayer
vector 201 MultiSeveralSatelliteSatUE_Standalone.ue[1].cellularNic.nrChannelModel[0] measuredSinrUl:vector ETV
attr recordingmode vector
attr source measuredSinrUl
attr title "SINR measured at feedback computation, UL"
attr unit dB
vector 202 MultiSeveralSatelliteSatUE_Standalone.ue[1].cellularNic.nrChannelModel[0] measuredSinrDl:vector ETV
attr recordingmode vector
attr source measuredSinrDl
attr title "SINR measured at feedback computation, DL"
attr unit dB
vector 203 MultiSeveralSatelliteSatUE_Standalone.ue[2].cellularNic.nrChannelModel[0] measuredSinrUl:vector ETV
attr recordingmode vector
attr source measuredSinrUl
attr title "SINR measured at feedback computation, UL"
attr unit dB
vector 204 MultiSeveralSatelliteSatUE_Standalone.ue[2].cellularNic.nrChannelModel[0] measuredSinrDl:vector ETV
attr recordingmode vector
attr source measuredSinrDl
attr title "SINR measured at feedback computation, DL"
attr unit dB
vector 205 MultiSeveralSatelliteSatUE_Standalone.ue[3].cellularNic.nrChannelModel[0] measuredSinrUl:vector ETV
attr recordingmode vector
attr source measuredSinrUl
attr title "SINR measured at feedback computation, UL"
attr unit dB
vector 206 MultiSeveralSatelliteSatUE_Standalone.ue[3].cellularNic.nrChannelModel[0] measuredSinrDl:vector ETV
attr recordingmode vector
attr source measuredSinrDl
attr title "SINR measured at feedback computation, DL"
attr unit dB
vector 207 MultiSeveralSatelliteSatUE_Standalone.ue[4].cellularNic.nrChannelModel[0] measuredSinrUl:vector ETV
attr recordingmode vector
attr source measuredSinrUl
attr title "SINR measured at feedback computation, UL"
attr unit dB
vector 208 MultiSeveralSatelliteSatUE_Standalone.ue[4].cellularNic.nrChannelModel[0] measuredSinrDl:vector ETV
attr recordingmode vector
attr source measuredSinrDl
attr title "SINR measured at feedback computation, DL"
attr unit dB
vector 209 MultiSeveralSatelliteSatUE_Standalone.ue[5].cellularNic.nrChannelModel[0] measuredSinrUl:vector ETV
attr recordingmode vector
attr source measuredSinrUl
attr title "SINR measured at feedback computation, UL"
attr unit dB
vector 210 MultiSeveralSatelliteSatUE_Standalone.ue[5].cellularNic.nrChannelModel[0] measuredSinrDl:vector ETV
attr recordingmode vector
attr source measuredSinrDl
attr title "SINR measured at feedback computation, DL"
attr unit dB
vector 211 MultiSeveralSatelliteSatUE_Standalone.ue[6].cellularNic.nrChannelModel[0] measuredSinrUl:vector ETV
attr recordingmode vector
attr source measuredSinrUl
attr title "SINR measured at feedback computation, UL"
attr unit dB
vector 212 MultiSeveralSatelliteSatUE_Standalone.ue[6].cellularNic.nrChannelModel[0] measuredSinrDl:vector ETV
attr recordingmode vector
attr source measuredSinrDl
attr title "SINR measured at feedback computation, DL"
attr unit dB
vector 213 MultiSeveralSatelliteSatUE_Standalone.ue[7].cellularNic.nrChannelModel[0] measuredSinrUl:vector ETV
attr recordingmode vector
attr source measuredSinrUl
attr title "SINR measured at feedback computation, UL"
attr unit dB
vector 214 MultiSeveralSatelliteSatUE_Standalone.ue[7].cellularNic.nrChannelModel[0] measuredSinrDl:vector ETV
attr recordingmode vector
attr source measuredSinrDl
attr title "SINR measured at feedback computation, DL"
attr unit dB
vector 215 MultiSeveralSatelliteSatUE_Standalone.ue[8].cellularNic.nrChannelModel[0] measuredSinrUl:vector ETV
attr recordingmode vector
attr source measuredSinrUl
attr title "SINR measured at feedback computation, UL"
attr unit dB
vector 216 MultiSeveralSatelliteSatUE_Standalone.ue[8].cellularNic.nrChannelModel[0] measuredSinrDl:vector ETV
attr recordingmode vector
attr source measuredSinrDl
attr title "SINR measured at feedback computation, DL"
attr unit dB
vector 217 MultiSeveralSatelliteSatUE_Standalone.ue[9].cellularNic.nrChannelModel[0] measuredSinrUl:vector ETV
attr recordingmode vector
attr source measuredSinrUl
attr title "SINR measured at feedback computation, UL"
attr unit dB
vector 218 MultiSeveralSatelliteSatUE_Standalone.ue[9].cellularNic.nrChannelModel[0] measuredSinrDl:vector ETV
attr recordingmode vector
attr source measuredSinrDl
attr title "SINR measured at feedback computation, DL"
attr unit dB
vector 219 MultiSeveralSatelliteSatUE_Standalone.gnbSat2.pppIf.ppp rxPkOk:vector(packetBytes) ETV
attr interpolationmode none
attr recordingmode vector(packetBytes)
attr source rxPkOk
attr title "packets received OK, packetBytes"
vector 220 MultiSeveralSatelliteSatUE_Standalone.gnbSat2.pppIf.ppp passedUpPk:vector(packetBytes) ETV
attr interpolationmode none
attr recordingmode vector(packetBytes)
attr source packetSentToUpper
attr title "packets passed to higher layer, packetBytes"
vector 221 MultiSeveralSatelliteSatUE_Standalone.gnbSat2.udp packetReceived:vector(packetBytes) ETV
attr interpolationmode none
attr recordingmode vector(packetBytes)
attr source packetReceived
attr title "packets received, packetBytes"
vector 222 MultiSeveralSatelliteSatUE_Standalone.gnbSat2.udp packetSent:vector(packetBytes) ETV
attr interpolationmode none
attr recordingmode vector(packetBytes)
attr source packetSent
attr title "packets sent, packetBytes"
vector 223 MultiSeveralSatelliteSatUE_Standalone.gnbSat2.cellularNic.pdcpRrc receivedPacketFromUpperLayer:vector(packetBytes) ETV
attr interpolationmode none
attr recordingmode vector(packetBytes)
attr source receivedPacketFromUpperLayer
vector 224 MultiSeveralSatelliteSatUE_Standalone.gnbSat2.cellularNic.pdcpRrc sentPacketToLowerLayer:vector(packetBytes) ETV
attr interpolationmode none
attr recordingmode vector(packetBytes)
attr source sentPacketToLowerLayer
vector 225 MultiSeveralSatelliteSatUE_Standalone.gnbSat2.cellularNic.rlc.um receivedPacketFromUpperLayer:vector(packetBytes) ETV
attr interpolationmode none
attr recordingmode vector(packetBytes)
attr source receivedPacketFromUpperLayer
vector 226 MultiSeveralSatelliteSatUE_Standalone.gnbSat2.cellularNic.mac receivedPacketFromUpperLayer:vector(packetBytes) ETV
attr interpolationmode none
attr recordingmode vector(packetBytes)
attr source receivedPacketFromUpperLayer
vector 227 MultiSeveralSatelliteSatUE_Standalone.gnbSat2.cellularNic.mac sentPacketToUpperLayer:vector(packetBytes) ETV
attr interpolationmode none
attr recordingmode vector(packetBytes)
attr source sentPacketToUpperLayer
vector 228 MultiSeveralSatelliteSatUE_Standalone.gnbSat2.cellularNic.rlc.um sentPacketToLowerLayer:vector(packetBytes) ETV
attr interpolationmode none
attr recordingmode vector(packetBytes)
attr source sentPacketToLowerLayer
vector 229 MultiSeveralSatelliteSatUE_Standalone.gnbSat2.cellularNic.mac sentPacketToLowerLayer:vector(packetBytes) ETV
attr interpolationmode none
attr recordingmode vector(packetBytes)
attr source sentPacketToLowerLayer
vector 230 MultiSeveralSatelliteSatUE_Standalone.gnbSat3.x2ppp[1].ppp rxPkOk:vector(packetBytes) ETV
attr interpolationmode none
attr recordingmode vector(packetBytes)
attr source rxPkOk
attr title "packets received OK, packetBytes"
vector 231 MultiSeveralSatelliteSatUE_Standalone.gnbSat3.x2ppp[1].ppp passedUpPk:vector(packetBytes) ETV
attr interpolationmode none
attr recordingmode vector(packetBytes)
attr source packetSentToUpper
attr title "packets passed to higher layer, packetBytes"
vector 232 MultiSeveralSatelliteSatUE_Standalone.ue[0].cellularNic.nrPhy averageCqiDl:vector ETV
attr recordingmode vector
attr source averageCqiDl
attr title "Average Cqi reported in DL"
attr unit cqi
vector 233 MultiSeveralSatelliteSatUE_Standalone.ue[0].cellularNic.nrChannelModel[0] rcvdSinrDl:vector ETV
attr recordingmode vector
attr source rcvdSinrDl
attr title "SINR measured at packet reception, DL"
attr unit dB
vector 234 MultiSeveralSatelliteSatUE_Standalone.ue[0].cellularNic.nrMac receivedPacketFromLowerLayer:vector(packetBytes) ETV
attr interpolationmode none
attr recordingmode vector(packetBytes)
attr source receivedPacketFromLowerLayer
vector 235 MultiSeveralSatelliteSatUE_Standalone.gnbSat1.x2ppp[1].ppp rxPkOk:vector(packetBytes) ETV
attr interpolationmode none
attr recordingmode vector(packetBytes)
attr source rxPkOk
attr title "packets received OK, packetBytes"
vector 236 MultiSeveralSatelliteSatUE_Standalone.gnbSat1.x2ppp[1].ppp passedUpPk:vector(packetBytes) ETV
attr interpolationmode none
attr recordingmode vector(packetBytes)
attr source packetSentToUpper
attr title "packets passed to higher layer, packetBytes"
vector 237 MultiSeveralSatelliteSatUE_Standalone.gnbSat2.x2ppp[1].ppp rxPkOk:vector(packetBytes) ETV
attr interpolationmode none
attr recordingmode vector(packetBytes)
attr source rxPkOk
attr title "packets received OK, packetBytes"
vector 238 MultiSeveralSatelliteSatUE_Standalone.gnbSat2.x2ppp[1].ppp passedUpPk:vector(packetBytes) ETV
attr interpolationmode none
attr recordingmode vector(packetBytes)
attr source packetSentToUpper
attr title "packets passed to higher layer, packetBytes"
vector 239 MultiSeveralSatelliteSatUE_Standalone.gnbSat3.udp packetReceived:vector(packetBytes) ETV
attr interpolationmode none
attr recordingmode vector(packetBytes)
attr source packetReceived
attr title "packets received, packetBytes"
vector 240 MultiSeveralSatelliteSatUE_Standalone.ue[1].cellularNic.nrPhy averageCqiDl:vector ETV
attr recordingmode vector
attr source averageCqiDl
attr title "Average Cqi reported in DL"
attr unit cqi
vector 241 MultiSeveralSatelliteSatUE_Standalone.ue[1].cellularNic.nrChannelModel[0] rcvdSinrDl:vector ETV
attr recordingmode vector
attr source rcvdSinrDl
attr title "SINR measured at packet reception, DL"
attr unit dB
vector 242 MultiSeveralSatelliteSatUE_Standalone.ue[1].cellularNic.nrMac receivedPacketFromLowerLayer:vector(packetBytes) ETV
attr interpolationmode none
attr recordingmode vector(packetBytes)
attr source receivedPacketFromLowerLayer
vector 243 MultiSeveralSatelliteSatUE_Standalone.ue[0].cellularNic.nrMac sentPacketToLowerLayer:vector(packetBytes) ETV
attr interpolationmode none
attr recordingmode vector(packetBytes)
attr source sentPacketToLowerLayer
vector 244 MultiSeveralSatelliteSatUE_Standalone.ue[0].cellularNic.nrMac macDelayDl:vector ETV
attr recordingmode vector
attr source macDelayDl
attr title "Delay at the MAC layer UL"
attr unit s
vector 245 MultiSeveralSatelliteSatUE_Standalone.ue[0].cellularNic.nrMac sentPacketToUpperLayer:vector(packetBytes) ETV
attr interpolationmode none
attr recordingmode vector(packetBytes)
attr source sentPacketToUpperLayer
vector 246 MultiSeveralSatelliteSatUE_Standalone.ue[0].cellularNic.nrRlc.um receivedPacketFromLowerLayer:vector(packetBytes) ETV
attr interpolationmode none
attr recordingmode vector(packetBytes)
attr source receivedPacketFromLowerLayer
vector 247 MultiSeveralSatelliteSatUE_Standalone.ue[0].cellularNic.nrRlc.um rlcPduThroughputDl:vector ETV
attr recordingmode vector
attr source rlcPduThroughputDl
attr title "Throughput at the rlc layer DL"
attr unit Bps
vector 248 MultiSeveralSatelliteSatUE_Standalone.ue[0].cellularNic.nrRlc.um rlcPduDelayDl:vector ETV
attr recordingmode vector
attr source rlcPduDelayDl
attr title "Delay at the rlc layer UL"
attr unit s
vector 249 MultiSeveralSatelliteSatUE_Standalone.ue[0].cellularNic.nrRlc.um rlcThroughputDl:vector ETV
attr recordingmode vector
attr source rlcThroughputDl
attr title "Throughput at the rlc layer DL"
attr unit Bps
vector 250 MultiSeveralSatelliteSatUE_Standalone.ue[0].cellularNic.nrRlc.um rlcPacketLossDl:vector ETV
attr recordingmode vector
attr source rlcPacketLossDl
attr title "rlc Packet Loss"
attr unit ""
vector 251 MultiSeveralSatelliteSatUE_Standalone.ue[0].cellularNic.nrRlc.um rlcPacketLossTotal:vector ETV
attr recordingmode vector
attr source rlcPacketLossTotal
attr title "rlc Packet Loss"
attr unit ""
vector 252 MultiSeveralSatelliteSatUE_Standalone.ue[0].cellularNic.nrRlc.um rlcDelayDl:vector ETV
attr recordingmode vector
attr source rlcDelayDl
attr title "Delay at the rlc layer DL"
attr unit s
vector 253 MultiSeveralSatelliteSatUE_Standalone.ue[0].cellularNic.nrRlc.um sentPacketToUpperLayer:vector(packetBytes) ETV
attr interpolationmode none
attr recordingmode vector(packetBytes)
attr source sentPacketToUpperLayer
vector 254 MultiSeveralSatelliteSatUE_Standalone.ue[0].cellularNic.nrRlc.um rlcPduPacketLossDl:vector ETV
attr recordingmode vector
attr source rlcPduPacketLossDl
attr title "rlc Packet Loss"
attr unit ""
vector 255 MultiSeveralSatelliteSatUE_Standalone.ue[0].cellularNic.pdcpRrc receivedPacketFromLowerLayer:vector(packetBytes) ETV
attr interpolationmode none
attr recordingmode vector(packetBytes)
attr source receivedPacketFromLowerLayer
vector 256 MultiSeveralSatelliteSatUE_Standalone.ue[0].cellularNic.pdcpRrc sentPacketToUpperLayer:vector(packetBytes) ETV
attr interpolationmode none
attr recordingmode vector(packetBytes)
attr source sentPacketToUpperLayer
vector 257 MultiSeveralSatelliteSatUE_Standalone.ue[0].udp packetReceived:vector(packetBytes) ETV
attr interpolationmode none
attr recordingmode vector(packetBytes)
attr source packetReceived
attr title "packets received, packetBytes"
vector 258 MultiSeveralSatelliteSatUE_Standalone.ue[0].app[0] cbrReceivedBytes:vector ETV
attr recordingmode vector
attr source cbrReceivedBytesSignal
attr title "Bytes received at the application level"
attr unit Bps
vector 259 MultiSeveralSatelliteSatUE_Standalone.ue[0].app[0] cbrFrameDelay:vector ETV
attr recordingmode vector
attr source cbrFrameDelaySignal
attr title "Cbr Frame Delay"
attr unit s
vector 260 MultiSeveralSatelliteSatUE_Standalone.ue[0].app[0] cbrRcvdPkt:vector ETV
attr recordingmode vector
attr source cbrRcvdPkt
attr title "Received packet ID"
attr unit ""
vector 261 MultiSeveralSatelliteSatUE_Standalone.gnbSat3.x2ppp[0].ppp rxPkOk:vector(packetBytes) ETV
attr interpolationmode none
attr recordingmode vector(packetBytes)
attr source rxPkOk
attr title "packets received OK, packetBytes"
vector 262 MultiSeveralSatelliteSatUE_Standalone.gnbSat3.x2ppp[0].ppp passedUpPk:vector(packetBytes) ETV
attr interpolationmode none
attr recordingmode vector(packetBytes)
attr source packetSentToUpper
attr title "packets passed to higher layer, packetBytes"
vector 263 MultiSeveralSatelliteSatUE_Standalone.ue[0].cellularNic.nrMac harqErrorRate_1st_Dl:vector ETV
attr recordingmode vector
attr source harqErrorRate_1st_Dl
attr title "Harq Error Rate Dl (1st tx)"
attr unit ""
vector 264 MultiSeveralSatelliteSatUE_Standalone.ue[0].cellularNic.nrMac harqErrorRateDl:vector ETV
attr recordingmode vector
attr source harqErrorRateDl
attr title "Harq Error Rate Dl"
attr unit ""
vector 265 MultiSeveralSatelliteSatUE_Standalone.ue[0].cellularNic.nrMac harqTxAttemptsDl:vector ETV
attr recordingmode vector
attr source harqTxAttemptsDl
attr title "Harq Tx Attempts Dl"
attr unit ""
vector 266 MultiSeveralSatelliteSatUE_Standalone.ue[1].cellularNic.nrMac sentPacketToLowerLayer:vector(packetBytes) ETV
attr interpolationmode none
attr recordingmode vector(packetBytes)
attr source sentPacketToLowerLayer
vector 267 MultiSeveralSatelliteSatUE_Standalone.gnbSat1.x2ppp[0].ppp rxPkOk:vector(packetBytes) ETV
attr interpolationmode none
attr recordingmode vector(packetBytes)
attr source rxPkOk
attr title "packets received OK, packetBytes"
vector 268 MultiSeveralSatelliteSatUE_Standalone.gnbSat1.x2ppp[0].ppp passedUpPk:vector(packetBytes) ETV
attr interpolationmode none
attr recordingmode vector(packetBytes)
attr source packetSentToUpper
attr title "packets passed to higher layer, packetBytes"
vector 269 MultiSeveralSatelliteSatUE_Standalone.ue[1].cellularNic.nrMac harqErrorRate_1st_Dl:vector ETV
attr recordingmode vector
attr source harqErrorRate_1st_Dl
attr title "Harq Error Rate Dl (1st tx)"
attr unit ""
vector 270 MultiSeveralSatelliteSatUE_Standalone.ue[1].cellularNic.nrMac harqErrorRateDl:vector ETV
attr recordingmode vector
attr source harqErrorRateDl
attr title "Harq Error Rate Dl"
attr unit ""
vector 271 MultiSeveralSatelliteSatUE_Standalone.ue[8].cellularNic.nrPhy averageCqiDl:vector ETV
attr recordingmode vector
attr source averageCqiDl
attr title "Average Cqi reported in DL"
attr unit cqi
vector 272 MultiSeveralSatelliteSatUE_Standalone.ue[8].cellularNic.nrChannelModel[0] rcvdSinrDl:vector ETV
attr recordingmode vector
attr source rcvdSinrDl
attr title "SINR measured at packet reception, DL"
attr unit dB
vector 273 MultiSeveralSatelliteSatUE_Standalone.ue[8].cellularNic.nrMac receivedPacketFromLowerLayer:vector(packetBytes) ETV
attr interpolationmode none
attr recordingmode vector(packetBytes)
attr source receivedPacketFromLowerLayer
vector 274 MultiSeveralSatelliteSatUE_Standalone.gnbSat2.x2ppp[0].ppp rxPkOk:vector(packetBytes) ETV
attr interpolationmode none
attr recordingmode vector(packetBytes)
attr source rxPkOk
attr title "packets received OK, packetBytes"
vector 275 MultiSeveralSatelliteSatUE_Standalone.gnbSat2.x2ppp[0].ppp passedUpPk:vector(packetBytes) ETV
attr interpolationmode none
attr recordingmode vector(packetBytes)
attr source packetSentToUpper
attr title "packets passed to higher layer, packetBytes"
vector 276 MultiSeveralSatelliteSatUE_Standalone.ue[8].cellularNic.nrMac sentPacketToLowerLayer:vector(packetBytes) ETV
attr interpolationmode none
attr recordingmode vector(packetBytes)
attr source sentPacketToLowerLayer
vector 277 MultiSeveralSatelliteSatUE_Standalone.ue[8].cellularNic.nrMac macDelayDl:vector ETV
attr recordingmode vector
attr source macDelayDl
attr title "Delay at the MAC layer UL"
attr unit s
vector 278 MultiSeveralSatelliteSatUE_Standalone.ue[8].cellularNic.nrMac sentPacketToUpperLayer:vector(packetBytes) ETV
attr interpolationmode none
attr recordingmode vector(packetBytes)
attr source sentPacketToUpperLayer
vector 279 MultiSeveralSatelliteSatUE_Standalone.ue[8].cellularNic.nrRlc.um receivedPacketFromLowerLayer:vector(packetBytes) ETV
attr interpolationmode none
attr recordingmode vector(packetBytes)
attr source receivedPacketFromLowerLayer
vector 280 MultiSeveralSatelliteSatUE_Standalone.ue[8].cellularNic.nrRlc.um rlcPduThroughputDl:vector ETV
attr recordingmode vector
attr source rlcPduThroughputDl
attr title "Throughput at the rlc layer DL"
attr unit Bps
vector 281 MultiSeveralSatelliteSatUE_Standalone.ue[8].cellularNic.nrRlc.um rlcPduDelayDl:vector ETV
attr recordingmode vector
attr source rlcPduDelayDl
attr title "Delay at the rlc layer UL"
attr unit s
vector 282 MultiSeveralSatelliteSatUE_Standalone.ue[8].cellularNic.nrRlc.um rlcThroughputDl:vector ETV
attr recordingmode vector
attr source rlcThroughputDl
attr title "Throughput at the rlc layer DL"
attr unit Bps
vector 283 MultiSeveralSatelliteSatUE_Standalone.ue[8].cellularNic.nrRlc.um rlcPacketLossDl:vector ETV
attr recordingmode vector
attr source rlcPacketLossDl
attr title "rlc Packet Loss"
attr unit ""
vector 284 MultiSeveralSatelliteSatUE_Standalone.ue[8].cellularNic.nrRlc.um rlcPacketLossTotal:vector ETV
attr recordingmode vector
attr source rlcPacketLossTotal
attr title "rlc Packet Loss"
attr unit ""
vector 285 MultiSeveralSatelliteSatUE_Standalone.ue[8].cellularNic.nrRlc.um rlcDelayDl:vector ETV
attr recordingmode vector
attr source rlcDelayDl
attr title "Delay at the rlc layer DL"
attr unit s
vector 286 MultiSeveralSatelliteSatUE_Standalone.ue[8].cellularNic.nrRlc.um sentPacketToUpperLayer:vector(packetBytes) ETV
attr interpolationmode none
attr recordingmode vector(packetBytes)
attr source sentPacketToUpperLayer
vector 287 MultiSeveralSatelliteSatUE_Standalone.ue[8].cellularNic.nrRlc.um rlcPduPacketLossDl:vector ETV
attr recordingmode vector
attr source rlcPduPacketLossDl
attr title "rlc Packet Loss"
attr unit ""
vector 288 MultiSeveralSatelliteSatUE_Standalone.ue[8].cellularNic.pdcpRrc receivedPacketFromLowerLayer:vector(packetBytes) ETV
attr interpolationmode none
attr recordingmode vector(packetBytes)
attr source receivedPacketFromLowerLayer
vector 289 MultiSeveralSatelliteSatUE_Standalone.ue[8].cellularNic.pdcpRrc sentPacketToUpperLayer:vector(packetBytes) ETV
attr interpolationmode none
attr recordingmode vector(packetBytes)
attr source sentPacketToUpperLayer
vector 290 MultiSeveralSatelliteSatUE_Standalone.ue[8].udp packetReceived:vector(packetBytes) ETV
attr interpolationmode none
attr recordingmode vector(packetBytes)
attr source packetReceived
attr title "packets received, packetBytes"
vector 291 MultiSeveralSatelliteSatUE_Standalone.ue[8].app[0] cbrReceivedBytes:vector ETV
attr recordingmode vector
[...]
260	24809940 1898 964996 1050504 18.329 19.989 84 916 999 80430 77061110
263	24811838 1646 965091 1050599 18.33 19.99 84 0 0 0 0
264	24813484 1646 965091 1050599 18.33 19.99 84 0 0 0 0
265	24815130 1646 965091 1050599 18.33 19.99 84 1 1 84 84
266	24816776 6939 964342 1050898 18.317 19.997 337 1 1 337 337
269	24823715 1750 964137 1050693 18.312 19.992 85 1 1 85 85
270	24825465 6875 964137 1050967 18.312 19.998 338 1 1 338 338
271	24832340 1835 964190 1050746 18.313 19.993 85 11 12 1015 12125
272	24834175 2920 964190 1050746 18.313 19.993 85 21.7246332948 22.986004560154 1904.9959494754 42707.318513294
273	24837095 1920 964191 1050747 18.313 19.993 85 133 133 11305 1503565
276	24839015 1750 964321 1050877 18.316 19.996 85 1 1 85 85
277	24840765 2090 964321 1050877 18.316 19.996 85 0.004 0.004 0.34 0.00136
278	24842855 1920 964321 1050877 18.316 19.996 85 131 131 11135 1458685
279	24844775 1920 964324 1050880 18.316 19.996 85 131 131 11135 1458685
280	24846695 1750 964324 1050880 18.316 19.996 85 0 0 0 0
281	24848445 2090 964324 1050880 18.316 19.996 85 0.004 0.004 0.34 0.00136
282	24850535 2922 964324 1050880 18.316 19.996 85 3275.0054597074 3541.7583516703 290040.06440278 990200699.19097
283	24853457 1750 964324 1050880 18.316 19.996 85 0 0 0 0
284	24855207 1750 964324 1050880 18.316 19.996 85 0 0 0 0
285	24856957 2770 964324 1050880 18.316 19.996 85 0.00412645272 0.00412645272 0.3507484812 0.0014473470242836
286	24859727 1920 964324 1050880 18.316 19.996 85 129 129 10965 1414485
287	24861647 1750 964324 1050880 18.316 19.996 85 0 0 0 0
288	24863397 1920 964325 1050881 18.316 19.996 85 129 129 10965 1414485
289	24865317 1920 964325 1050881 18.316 19.996 85 128 128 10880 1392640
290	24867237 1920 964328 1050884 18.316 19.996 85 108 108 9180 991440
291	24869157 1920 964329 1050885 18.316 19.996 85 100 100 8500 850000
292	24871077 2855 964329 1050885 18.316 19.996 85 0.006762931248 0.006762931248 0.57484915608 0.0038876653205399
293	24873932 1920 964329 1050885 18.316 19.996 85 915 999 81345 77898335
294	24875852 1750 964373 1050929 18.317 19.997 85 0 0 0 0
295	24877602 1750 964373 1050929 18.317 19.997 85 0 0 0 0
296	24879352 1750 964373 1050929 18.317 19.997 85 1 1 85 85
297	24881102 3745 964374 1050930 18.317 19.997 182 2 2 364 728
298	24884847 6465 964374 1050930 18.317 19.997 182 -8.3131606612034 -7.064276050265 -1401.8034516119 10823.622526595
299	24891312 4109 964375 1050931 18.317 19.997 182 133 133 24206 3219398
300	24895421 1750 964411 1050967 18.318 19.998 85 1 1 85 85
301	24897171 3639 964498 1051060 18.32 20 182 1 1 182 182
302	24900810 1729 964598 1050126 18.321 19.981 84 1 1 84 84
303	24902539 3725 964598 1050432 18.321 19.987 181 0 1 97 97
304	24906264 6853 964256 1051067 18.314 20 338 2 2 676 1352
305	24913117 2982 964646 1050154 18.322 19.982 84 -10.687554247365 -9.9853977251615 -867.45764622735 8962.0000936973
306	24916099 7529 964257 1051068 18.314 20 338 133 133 44954 5978882
307	24923628 1729 964753 1050261 18.324 19.984 84 1 1 84 84
308	24925357 6938 964363 1050919 18.317 19.997 337 1 1 337 337
309	24932295 1729 964877 1050385 18.326 19.986 84 1 1 84 84
310	24934024 6958 964139 1050971 18.312 19.998 338 1 1 338 338
311	24940982 1730 964924 1050432 18.327 19.987 84 0 1 13 13
312	24942712 1646 965093 1050601 18.33 19.99 84 1 1 84 84
313	24944358 1750 964139 1050695 18.312 19.992 85 1 1 85 85
314	24946108 266 969364 1038403 18.413 19.753 13 0 0 0 0
315	24946374 1994 964864 1050372 18.326 19.986 84 0.01 0.016 0.918 0.010428
316	24948368 1897 964864 1050372 18.326 19.986 84 131 131 11004 1441524
317	24950265 1897 964867 1050375 18.326 19.986 84 131 131 11004 1441524
318	24952162 1729 964867 1050375 18.326 19.986 84 0 0 0 0
319	24953891 1994 964867 1050375 18.326 19.986 84 0.01 0.016 0.918 0.010428
320	24955885 1750 964415 1050971 18.318 19.998 85 1 1 85 85
322	24957635 1730 964924 1050432 18.327 19.987 84 2 3 181 401
323	24959365 1729 964755 1050263 18.324 19.984 84 1 1 84 84
324	24961094 15762 964101 1050753 18.31187354728 19.993273660348 507 128 128 64896 8306688
325	24976856 15762 964101 1050753 18.31187354728 19.993273660348 507 129 129 65403 8436987
326	24992618 15762 964102 1050754 18.31187354728 19.993273660348 507 129 129 65403 8436987
327	25008380 27214 964104 1050783 18.31187354728 19.994 1014 131 131 132834 17401254
328	25035594 16341 964525 1050622 18.320505139313 19.99063768462 504 1312 1312 661248 867557376
329	25051935 14829 964525 1050622 18.320505139313 19.99063768462 504 0 0 0 0
330	25066764 16341 964525 1050622 18.320505139313 19.99063768462 504 1312 1312 661248 867557376
331	25083105 15837 964525 1050622 18.320505139313 19.99063768462 504 164 164 82656 13555584
332	25098942 15837 964525 1050622 18.320505139313 19.99063768462 504 171 171 86184 14737464
333	25114779 15732 964140 1050748 18.312375362053 19.993273660348 506 171 171 86526 14795946
334	25130511 15732 964140 1050748 18.312375362053 19.993273660348 506 164 164 82984 13609376
336	25146243 15662 964253 1051001 18.314 19.999 761 1 1 761 761
337	25161905 10438 964107 1050779 18.312 19.994 507 1 1 507 507
338	25172343 11452 964109 1050781 18.312 19.994 507 131 131 66417 8700627
339	25183795 11474 964134 1050806 18.312 19.994 508 133 133 67564 8986012
340	25195269 1729 964798 1050306 18.325 19.985 84 4 4 336 1344
341	25196998 3065 964798 1050306 18.325 19.985 84 -0.95016630699834 -0.28328270288426 -55.310088763616 39.426888180906
342	25200063 1897 964799 1050307 18.325 19.985 84 133 133 11172 1485876
343	25201960 1750 964258 1050814 18.314 19.994 85 4 5 405 1945
344	25203710 2935 964258 1050814 18.314 19.994 85 2.1466345176526 4.2570834970934 289.6245434399 1027.3060562398
345	25206645 1920 964259 1050815 18.314 19.994 85 133 133 11305 1503565
346	25208565 1729 964800 1050308 18.325 19.985 84 6 7 564 3804
347	25210294 2895 964800 1050308 18.325 19.985 84 7.6124412963296 9.9120511176804 747.45145180751 6699.1318426572
348	25213189 1897 964801 1050309 18.325 19.985 84 133 133 11172 1485876
349	25215086 1785 964286 1050842 18.315 19.995 85 9 10 800 7550
350	25216871 2940 964286 1050842 18.315 19.995 85 12.448946387445 17.913759664619 1263.9685917278 19175.132930998
351	25219811 1920 964287 1050843 18.315 19.995 85 133 133 11305 1503565
352	25221731 1666 965094 1050602 18.33 19.99 85 5 5 425 2125
353	25223397 2839 965094 1050602 18.33 19.99 85 1.2541697463641 3.2313299919423 241.0827057587 690.02918901365
354	25226236 1836 965095 1050603 18.33 19.99 85 133 133 11305 1503565
355	25228072 1730 964933 1050441 18.328 19.988 84 1 1 84 84
356	25229802 2066 964933 1050441 18.328 19.988 84 0.004 0.004 0.336 0.001344
357	25231868 1898 964933 1050441 18.328 19.988 84 131 131 11004 1441524
358	25233766 1898 964936 1050444 18.328 19.988 84 131 131 11004 1441524
359	25235664 1730 964936 1050444 18.328 19.988 84 0 0 0 0
360	25237394 2066 964936 1050444 18.328 19.988 84 0.004 0.004 0.336 0.001344
361	25239460 2897 964936 1050444 18.328 19.988 84 6453.872323394 6454.2230467045 542139.58506023 3498992020.9914
362	25242357 1730 964936 1050444 18.328 19.988 84 0 0 0 0
363	25244087 1730 964936 1050444 18.328 19.988 84 0 0 0 0
364	25245817 2738 964936 1050444 18.328 19.988 84 0.00457931069 0.00457931069 0.38466209796 0.0017614872572261
365	25248555 1898 964936 1050444 18.328 19.988 84 129 129 10836 1397844
366	25250453 1730 964936 1050444 18.328 19.988 84 0 0 0 0
367	25252183 1898 964937 1050445 18.328 19.988 84 129 129 10836 1397844
368	25254081 1898 964937 1050445 18.328 19.988 84 128 128 10752 1376256
369	25255979 1898 964940 1050448 18.328 19.988 84 108 108 9072 979776
370	25257877 1898 964941 1050449 18.328 19.988 84 100 100 8400 840000
371	25259775 2822 964941 1050449 18.328 19.988 84 0.007215789218 0.007215789218 0.606126294312 0.0043736795792428
372	25262597 1898 964941 1050449 18.328 19.988 84 916 999 80430 77061110
373	25264495 1750 964347 1050903 18.317 19.997 85 1 1 85 85
374	25266245 2090 964347 1050903 18.317 19.997 85 0.004 0.004 0.34 0.00136
375	25268335 1920 964347 1050903 18.317 19.997 85 131 131 11135 1458685
376	25270255 1920 964350 1050906 18.317 19.997 85 131 131 11135 1458685
377	25272175 1750 964350 1050906 18.317 19.997 85 0 0 0 0
378	25273925 2090 964350 1050906 18.317 19.997 85 0.004 0.004 0.34 0.00136
379	25276015 2920 964350 1050906 18.317 19.997 85 6444.0137577114 6444.5166775016 547763.1611061 3529935068.4789
380	25278935 1750 964350 1050906 18.317 19.997 85 0 0 0 0
381	25280685 1750 964350 1050906 18.317 19.997 85 0 0 0 0
382	25282435 2855 964350 1050906 18.317 19.997 85 0.004624637947 0.004624637947 0.393094225495 0.0018179184719707
383	25285290 1920 964350 1050906 18.317 19.997 85 129 129 10965 1414485
384	25287210 1750 964350 1050906 18.317 19.997 85 0 0 0 0
385	25288960 1920 964351 1050907 18.317 19.997 85 129 129 10965 1414485
386	25290880 1920 964351 1050907 18.317 19.997 85 128 128 10880 1392640
387	25292800 1920 964354 1050910 18.317 19.997 85 108 108 9180 991440
388	25294720 1920 964355 1050911 18.317 19.997 85 100 100 8500 850000
389	25296640 2855 964355 1050911 18.317 19.997 85 0.007261116475 0.007261116475 0.617194900375 0.0044815240593989
390	25299495 1920 964355 1050911 18.317 19.997 85 915 999 81345 77898335
391	25301415 1730 964945 1050453 18.328 19.988 84 1 1 84 84
392	25303145 1750 964390 1050946 18.318 19.998 85 1 1 85 85
393	25304895 2090 964390 1050946 18.318 19.998 85 0.004 0.004 0.34 0.00136
394	25306985 1920 964390 1050946 18.318 19.998 85 131 131 11135 1458685
395	25308905 1920 964393 1050949 18.318 19.998 85 131 131 11135 1458685
396	25310825 1750 964393 1050949 18.318 19.998 85 0 0 0 0
397	25312575 2090 964393 1050949 18.318 19.998 85 0.004 0.004 0.34 0.00136
398	25314665 2932 964393 1050949 18.318 19.998 85 6443.661971831 6444.1944194419 547734.55046607 3529566328.81
399	25317597 1750 964393 1050949 18.318 19.998 85 0 0 0 0
400	25319347 1750 964393 1050949 18.318 19.998 85 0 0 0 0
401	25321097 2855 964393 1050949 18.318 19.998 85 0.004726339652 0.004726339652 0.40173887042 0.0018987543530157
402	25323952 1920 964393 1050949 18.318 19.998 85 129 129 10965 1414485
403	25325872 1750 964393 1050949 18.318 19.998 85 0 0 0 0
404	25327622 1920 964394 1050950 18.318 19.998 85 129 129 10965 1414485
405	25329542 1920 964394 1050950 18.318 19.998 85 128 128 10880 1392640
406	25331462 1920 964397 1050953 18.318 19.998 85 108 108 9180 991440
407	25333382 1920 964398 1050954 18.318 19.998 85 100 100 8500 850000
408	25335302 2770 964398 1050954 18.318 19.998 85 0.00736281818 0.00736281818 0.6258395453 0.0046079427818978
409	25338072 1920 964398 1050954 18.318 19.998 85 915 999 81345 77898335
410	25339992 1770 964169 1050725 18.313 19.993 86 1 1 86 86
411	25341762 2089 964169 1050725 18.313 19.993 85 0.004 0.01 0.346 0.001444
412	25343851 1920 964169 1050725 18.313 19.993 85 131 131 11135 1458685
413	25345771 1920 964172 1050728 18.313 19.993 85 131 131 11135 1458685
414	25347691 1750 964172 1050728 18.313 19.993 85 0 0 0 0
415	25349441 2089 964172 1050728 18.313 19.993 85 0.004 0.01 0.346 0.001444
416	25351530 2930 964172 1050728 18.313 19.993 85 6443.3393119191 6445.8060321112 547875.53169286 3531383514.7483
417	25354460 1750 964172 1050728 18.313 19.993 85 0 0 0 0
418	25356210 1750 964172 1050728 18.313 19.993 85 0 0 0 0
419	25357960 2770 964172 1050728 18.313 19.993 85 0.00493251569 0.01093251569 0.42526383365 0.0021632156260082
420	25360730 1920 964172 1050728 18.313 19.993 85 129 129 10965 1414485
421	25362650 1750 964172 1050728 18.313 19.993 85 0 0 0 0
422	25364400 1920 964173 1050729 18.313 19.993 85 129 129 10965 1414485
423	25366320 1920 964173 1050729 18.313 19.993 85 128 128 10880 1392640
424	25368240 1920 964176 1050732 18.313 19.993 85 108 108 9180 991440
425	25370160 1920 964177 1050733 18.313 19.993 85 100 100 8500 850000
426	25372080 2855 964177 1050733 18.313 19.993 85 0.007568994218 0.013568994218 0.64936450853 0.004996450175746
427	25374935 1920 964177 1050733 18.313 19.993 85 915 999 81345 77898335
428	25376855 1730 965021 1050529 18.329 19.989 84 0 0 0 0
429	25378585 1730 965021 1050529 18.329 19.989 84 0 0 0 0
430	25380315 1730 965021 1050529 18.329 19.989 84 1 1 84 84
431	25382045 1750 964413 1050969 18.318 19.998 85 0 0 0 0
432	25383795 1750 964413 1050969 18.318 19.998 85 0 0 0 0
433	25385545 1750 964413 1050969 18.318 19.998 85 1 1 85 85
434	25387295 1730 965023 1050531 18.329 19.989 84 0 0 0 0
435	25389025 1730 965023 1050531 18.329 19.989 84 0 0 0 0
436	25390755 1750 964445 1051001 18.319 19.999 85 0 0 0 0
437	25392505 1750 964445 1051001 18.319 19.999 85 0 0 0 0
438	25394255 1750 964445 1051001 18.319 19.999 85 1 1 85 85
439	25396005 1750 964253 1050809 18.314 19.994 85 0 1 1 1
440	25397755 1768 964253 1050809 18.314 19.994 86 0 1 1 1
441	25399523 1748 964253 1050809 18.314 19.994 85 1 2 86 88
442	25401271 2066 964945 1050453 18.328 19.988 84 0.004 0.004 0.336 0.001344
443	25403337 1898 964945 1050453 18.328 19.988 84 131 131 11004 1441524
444	25405235 1898 964948 1050456 18.328 19.988 84 131 131 11004 1441524
445	25407133 1730 964948 1050456 18.328 19.988 84 0 0 0 0
446	25408863 2066 964948 1050456 18.328 19.988 84 0.004 0.004 0.336 0.001344
447	25410929 1730 964948 1050456 18.328 19.988 84 0 0 0 0
449	25412659 1730 965023 1050531 18.329 19.989 84 1 1 84 84
450	25414389 397 968631 1051135 18.4 20 17 512000 512000 8704000 4456448000000
451	25414786 397 968631 1051135 18.4 20 17 512000 512000 8704000 4456448000000
452	25415183 397 968635 1051135 18.4 20 17 512000 512000 8704000 4456448000000
453	25415580 397 968635 1051135 18.4 20 17 512000 512000 8704000 4456448000000
454	25415977 397 968642 1051135 18.4 20 17 656000 656000 11152000 7315712000000
455	25416374 397 968642 1051135 18.4 20 17 656000 656000 11152000 7315712000000
456	25416771 397 968646 1051135 18.4 20 17 393600 393600 6691200 2633656320000
457	25417168 397 968646 1051135 18.4 20 17 393600 393600 6691200 2633656320000
460	25417565 397 968941 1051135 18.4 20 17 196800 196800 3345600 658414080000
461	25417962 397 968941 1051135 18.4 20 17 196800 196800 3345600 658414080000
463	25418359 1730 964948 1050456 18.328 19.988 84 0 0 0 0
464	25420089 1730 964948 1050456 18.328 19.988 84 0 0 0 0
465	25421819 2896 964948 1050456 18.328 19.988 84 6419.0309908337 6421.6029617771 539309.70955834 3462559128.6135
466	25424715 2822 964948 1050456 18.328 19.988 84 0.004858884959 0.004858884959 0.408146336556 0.0019831360957629
467	25427537 1898 964948 1050456 18.328 19.988 84 129 129 10836 1397844
468	25429435 1898 964949 1050457 18.328 19.988 84 129 129 10836 1397844
469	25431333 1898 964949 1050457 18.328 19.988 84 128 128 10752 1376256
470	25433231 1898 964952 1050460 18.328 19.988 84 108 108 9072 979776
471	25435129 1898 964953 1050461 18.328 19.988 84 100 100 8400 840000
472	25437027 2822 964953 1050461 18.328 19.988 84 0.007495363487 0.007495363487 0.629610532908 0.0047191597993892
473	25439849 1898 964953 1050461 18.328 19.988 84 916 999 80430 77061110
474	25441747 1729 964867 1050375 18.326 19.986 84 0 0 0 0
484	25443476 18 968623 968623 18.4 18.4 1 0 0 0 0
504	25443494 1729 964867 1050375 18.326 19.986 84 0 0 0 0
505	25445223 1729 964867 1050375 18.326 19.986 84 0 0 0 0
506	25446952 2894 964867 1050375 18.326 19.986 84 2604.4963439921 2923.8967277094 232564.24453022 644613844.34449
507	25449846 2821 964867 1050375 18.326 19.986 84 0.010886542771 0.016886542771 0.992469592764 0.01212171300668
508	25452667 1897 964867 1050375 18.326 19.986 84 129 129 10836 1397844
509	25454564 1897 964868 1050376 18.326 19.986 84 129 129 10836 1397844
510	25456461 1897 964868 1050376 18.326 19.986 84 128 128 10752 1376256
511	25458358 1897 964871 1050379 18.326 19.986 84 108 108 9072 979776
512	25460255 1897 964872 1050380 18.326 19.986 84 100 100 8400 840000
513	25462152 2821 964872 1050380 18.326 19.986 84 0.012480907695 0.018480907695 1.12639624638 0.015499958379273
514	25464973 1897 964872 1050380 18.326 19.986 84 915 998 80346 76900334
515	25466870 2026 1051135 1051135 9.3 20 108 0 3840 3840 14745600
516	25468896 2026 1051135 1051135 9.3 20 108 0 3840 3840 14745600
517	25470922 2062 1051135 1051135 9.1 20 110 0 8960 8960 80281600
518	25472984 2062 1051135 1051135 9.1 20 110 0 8960 8960 80281600
520	25475046 1884 1051135 1051135 10.1 20 100 0 49280 49280 2428518400
521	25476930 1884 1051135 1051135 10.1 20 100 0 49280 49280 2428518400
522	25478814 1883 1051135 1051135 10.1 20 100 0 8960 8960 80281600
523	25480697 1883 1051135 1051135 10.1 20 100 0 8960 8960 80281600
525	25482580 2569 964758 1050266 18.32406405877 19.98406405877 84 144 144 12096 1741824
526	25485149 2569 964761 1050269 18.32406405877 19.98406405877 84 128 128 10752 1376256
527	25487718 2569 964761 1050269 18.32406405877 19.98406405877 84 129 129 10836 1397844
528	25490287 2569 964762 1050270 18.32406405877 19.98406405877 84 129 129 10836 1397844
529	25492856 4466 964764 1050277 18.32406405877 19.985 168 131 131 22008 2883048
530	25497322 2737 964666 1050174 18.322632439809 19.982632439809 84 1312 1312 110208 144592896
531	25500059 380 968787 1051135 18.4 20 17 65600 65600 1115200 73157120000
532	25500439 2485 964666 1050174 18.322632439809 19.982632439809 84 0 0 0 0
533	25502924 2737 964666 1050174 18.322632439809 19.982632439809 84 1312 1312 110208 144592896
534	25505661 380 968787 1051135 18.4 20 17 65600 65600 1115200 73157120000
535	25506041 2653 964666 1050174 18.322632439809 19.982632439809 84 164 164 13776 2259264
536	25508694 2653 964666 1050174 18.322632439809 19.982632439809 84 171 171 14364 2456244
538	25511347 2569 964756 1050264 18.32406405877 19.98406405877 84 171 171 14364 2456244
539	25513916 2569 964756 1050264 18.32406405877 19.98406405877 84 164 164 13776 2259264
540	25516485 2510 964627 1050599 18.322 19.99 126 1 1 126 126
541	25518995 1729 964765 1050273 18.325 19.985 84 1 1 84 84
542	25520724 1897 964767 1050275 18.325 19.985 84 131 131 11004 1441524
543	25522621 1897 964793 1050301 18.325 19.985 84 133 133 11172 1485876
548	25524518 20 1051135 1051135 20 20 1 5000 5000 5000 25000000
549	25524538 20 1051135 1051135 20 20 1 5000 5000 5000 25000000
550	25524558 20 1051135 1051135 20 20 1 5000 5000 5000 25000000
551	25524578 20 1051135 1051135 20 20 1 5000 5000 5000 25000000
552	25524598 20 1051135 1051135 20 20 1 5000 5000 5000 25000000
553	25524618 20 1051135 1051135 20 20 1 5000 5000 5000 25000000
554	25524638 20 1051135 1051135 20 20 1 5000 5000 5000 25000000
555	25524658 20 1051135 1051135 20 20 1 5000 5000 5000 25000000
556	25524678 20 1051135 1051135 20 20 1 5000 5000 5000 25000000
557	25524698 20 1051135 1051135 20 20 1 5000 5000 5000 25000000
558	25524718 3661 1051135 1051135 0.1 20 200 0 0 0 0
559	25528379 3661 1051135 1051135 0.1 20 200 0 0 0 0
560	25532040 3661 1051135 1051135 0.1 20 200 0 0 0 0
561	25535701 3661 1051135 1051135 0.1 20 200 0 0 0 0
562	25539362 3661 1051135 1051135 0.1 20 200 0 0 0 0
563	25543023 3661 1051135 1051135 0.1 20 200 0 0 0 0
564	25546684 3661 1051135 1051135 0.1 20 200 0 0 0 0
565	25550345 3661 1051135 1051135 0.1 20 200 0 0 0 0
566	25554006 3661 1051135 1051135 0.1 20 200 0 0 0 0
567	25557667 3661 1051135 1051135 0.1 20 200 0 0 0 0
568	25561328 3665 1051135 1051135 0.1 20 200 0 34560 34560 1194393600
569	25564993 3665 1051135 1051135 0.1 20 200 0 34560 34560 1194393600
570	25568658 3661 1051135 1051135 0.1 20 200 0 0 0 0
571	25572319 3661 1051135 1051135 0.1 20 200 0 0 0 0
572	25575980 3661 1051135 1051135 0.1 20 200 0 0 0 0
573	25579641 3661 1051135 1051135 0.1 20 200 0 0 0 0
574	25583302 3661 1051135 1051135 0.1 20 200 0 0 0 0
575	25586963 3661 1051135 1051135 0.1 20 200 0 0 0 0
576	25590624 3661 1051135 1051135 0.1 20 200 0 0 0 0
577	25594285 3661 1051135 1051135 0.1 20 200 0 0 0 0
578	25597946 3665 1051135 1051135 0.1 20 200 0 34560 34560 1194393600
579	25601611 3665 1051135 1051135 0.1 20 200 0 34560 34560 1194393600
580	25605276 3661 1051135 1051135 0.1 20 200 0 0 0 0
581	25608937 3661 1051135 1051135 0.1 20 200 0 0 0 0

