version 3
run Standalone-0-20241009-20:51:39-22868
attr configname Standalone
attr datetime 20241009-20:51:39
attr datetimef 20241009-205139
attr experiment Standalone
attr inifile omnetpp.ini
attr iterationvars ""
attr iterationvarsd ""
attr iterationvarsf ""
attr measurement ""
attr network simu5g.simulations.SatCom.networks.SingleSatellite_Standalone
attr processid 22868
attr repetition 0
attr replication #0
attr resultdir results
attr runnumber 0
attr seedset 0
config image-path ../../../images;../../../../inet4.5/images
config network simu5g.simulations.SatCom.networks.SingleSatellite_Standalone
config sim-time-limit 20s
config *.gnbSat.mobility.initialX 450m
config *.gnbSat.mobility.initialY 300m
config *.gnbSat.mobility.typename LinearMobility
config *.gnbSat.mobility.initialX 50m
config *.gnbSat.mobility.initialY 550m
config *.gnbSat.mobility.speed 15mps
config *.gnbSat.mobility.initialMovementHeading 0deg
config *.numUe 1
config *.ue[0].macCellId 0
config *.ue[0].masterId 0
config *.ue[0].nrMacCellId 1
config *.ue[0].nrMasterId 1
config *.ue[0].mobility.initialX 450m
config *.ue[0].mobility.initialY 350m
config image-path ../../../images
config output-scalar-file-append false
config sim-time-limit 20s
config **.routingRecorder.enabled false
config output-scalar-file results/Standalone/0.sca
config output-vector-file results/Standalone/0.vec
config seed-set 0
config **.vector-recording false
config **.mobility.constraintAreaMaxX 1000m
config **.mobility.constraintAreaMaxY 1000m
config **.mobility.constraintAreaMinX 0m
config **.mobility.constraintAreaMinY 0m
config **.mobility.constraintAreaMinZ 0m
config **.mobility.constraintAreaMaxZ 0m
config **.mobility.initFromDisplayString false
config **.numBands 50
config **.ueTxPower 26
config **.eNodeBTxPower 40
config **.targetBler 0.01
config **.blerShift 5
config *.configurator.config "xmldoc(\"./demo.xml\")"

par SingleSatellite_Standalone.server.pppg$o[0].channel typename "\"inet.node.ethernet.Eth10G\""
par SingleSatellite_Standalone.server.pppg$o[0].channel disabled false
attr mutable ""
par SingleSatellite_Standalone.server.pppg$o[0].channel delay 5e-08s
attr mutable ""
attr unit s
par SingleSatellite_Standalone.server.pppg$o[0].channel datarate 1e+10bps
attr mutable ""
attr unit bps
par SingleSatellite_Standalone.server.pppg$o[0].channel ber 0
attr mutable ""
par SingleSatellite_Standalone.server.pppg$o[0].channel per 0
attr mutable ""
par SingleSatellite_Standalone.server.pppg$o[0].channel length 10m
attr unit m
par SingleSatellite_Standalone.router.pppg$o[0].channel typename "\"inet.node.ethernet.Eth10G\""
par SingleSatellite_Standalone.router.pppg$o[0].channel disabled false
attr mutable ""
par SingleSatellite_Standalone.router.pppg$o[0].channel delay 5e-08s
attr mutable ""
attr unit s
par SingleSatellite_Standalone.router.pppg$o[0].channel datarate 1e+10bps
attr mutable ""
attr unit bps
par SingleSatellite_Standalone.router.pppg$o[0].channel ber 0
attr mutable ""
par SingleSatellite_Standalone.router.pppg$o[0].channel per 0
attr mutable ""
par SingleSatellite_Standalone.router.pppg$o[0].channel length 10m
attr unit m
par SingleSatellite_Standalone.router.pppg$o[1].channel typename "\"inet.node.ethernet.Eth10G\""
par SingleSatellite_Standalone.router.pppg$o[1].channel disabled false
attr mutable ""
par SingleSatellite_Standalone.router.pppg$o[1].channel delay 5e-08s
attr mutable ""
attr unit s
par SingleSatellite_Standalone.router.pppg$o[1].channel datarate 1e+10bps
attr mutable ""
attr unit bps
par SingleSatellite_Standalone.router.pppg$o[1].channel ber 0
attr mutable ""
par SingleSatellite_Standalone.router.pppg$o[1].channel per 0
attr mutable ""
par SingleSatellite_Standalone.router.pppg$o[1].channel length 10m
attr unit m
par SingleSatellite_Standalone.upf.filterGate$o.channel typename "\"inet.node.ethernet.Eth10G\""
par SingleSatellite_Standalone.upf.filterGate$o.channel disabled false
attr mutable ""
par SingleSatellite_Standalone.upf.filterGate$o.channel delay 5e-08s
attr mutable ""
attr unit s
par SingleSatellite_Standalone.upf.filterGate$o.channel datarate 1e+10bps
attr mutable ""
attr unit bps
par SingleSatellite_Standalone.upf.filterGate$o.channel ber 0
attr mutable ""
par SingleSatellite_Standalone.upf.filterGate$o.channel per 0
attr mutable ""
par SingleSatellite_Standalone.upf.filterGate$o.channel length 10m
attr unit m
par SingleSatellite_Standalone.upf.pppg$o[0].channel typename "\"inet.node.ethernet.Eth10G\""
par SingleSatellite_Standalone.upf.pppg$o[0].channel disabled false
attr mutable ""
par SingleSatellite_Standalone.upf.pppg$o[0].channel delay 5e-08s
attr mutable ""
attr unit s
par SingleSatellite_Standalone.upf.pppg$o[0].channel datarate 1e+10bps
attr mutable ""
attr unit bps
par SingleSatellite_Standalone.upf.pppg$o[0].channel ber 0
attr mutable ""
par SingleSatellite_Standalone.upf.pppg$o[0].channel per 0
attr mutable ""
par SingleSatellite_Standalone.upf.pppg$o[0].channel length 10m
attr unit m
par SingleSatellite_Standalone.iUpf.pppg$o[0].channel typename "\"inet.node.ethernet.Eth10G\""
par SingleSatellite_Standalone.iUpf.pppg$o[0].channel disabled false
attr mutable ""
par SingleSatellite_Standalone.iUpf.pppg$o[0].channel delay 5e-08s
attr mutable ""
attr unit s
par SingleSatellite_Standalone.iUpf.pppg$o[0].channel datarate 1e+10bps
attr mutable ""
attr unit bps
par SingleSatellite_Standalone.iUpf.pppg$o[0].channel ber 0
attr mutable ""
par SingleSatellite_Standalone.iUpf.pppg$o[0].channel per 0
attr mutable ""
par SingleSatellite_Standalone.iUpf.pppg$o[0].channel length 10m
attr unit m
par SingleSatellite_Standalone.iUpf.pppg$o[1].channel typename "\"inet.node.ethernet.Eth10G\""
par SingleSatellite_Standalone.iUpf.pppg$o[1].channel disabled false
attr mutable ""
par SingleSatellite_Standalone.iUpf.pppg$o[1].channel delay 5e-08s
attr mutable ""
attr unit s
par SingleSatellite_Standalone.iUpf.pppg$o[1].channel datarate 1e+10bps
attr mutable ""
attr unit bps
par SingleSatellite_Standalone.iUpf.pppg$o[1].channel ber 0
attr mutable ""
par SingleSatellite_Standalone.iUpf.pppg$o[1].channel per 0
attr mutable ""
par SingleSatellite_Standalone.iUpf.pppg$o[1].channel length 10m
attr unit m
par SingleSatellite_Standalone.gnbSat.ppp$o.channel typename "\"inet.node.ethernet.Eth10G\""
par SingleSatellite_Standalone.gnbSat.ppp$o.channel disabled false
attr mutable ""
par SingleSatellite_Standalone.gnbSat.ppp$o.channel delay 5e-08s
attr mutable ""
attr unit s
par SingleSatellite_Standalone.gnbSat.ppp$o.channel datarate 1e+10bps
attr mutable ""
attr unit bps
par SingleSatellite_Standalone.gnbSat.ppp$o.channel ber 0
attr mutable ""
par SingleSatellite_Standalone.gnbSat.ppp$o.channel per 0
attr mutable ""
par SingleSatellite_Standalone.gnbSat.ppp$o.channel length 10m
attr unit m
par SingleSatellite_Standalone.channelControl typename "\"simu5g.world.radio.LteChannelControl\""
par SingleSatellite_Standalone.channelControl coreDebug false
par SingleSatellite_Standalone.channelControl pMax 20mW
attr unit mW
par SingleSatellite_Standalone.channelControl sat -110dBm
attr unit dBm
par SingleSatellite_Standalone.channelControl alpha 2
par SingleSatellite_Standalone.channelControl carrierFrequency 2.4e+09Hz
attr unit Hz
par SingleSatellite_Standalone.channelControl numChannels 1
par SingleSatellite_Standalone.channelControl propagationModel "\"FreeSpaceModel\""
attr enum FreeSpaceModel,TwoRayGroundModel,RiceModel,RayleighModel,NakagamiModel,LogNormalShadowingModel
par SingleSatellite_Standalone.routingRecorder typename "\"inet.networklayer.ipv4.RoutingTableRecorder\""
par SingleSatellite_Standalone.routingRecorder enabled false
par SingleSatellite_Standalone.configurator typename "\"inet.networklayer.configurator.ipv4.Ipv4NetworkConfigurator\""
par SingleSatellite_Standalone.configurator minLinkWeight 0.001
par SingleSatellite_Standalone.configurator configureIsolatedNetworksSeparatly false
par SingleSatellite_Standalone.configurator config "<config>...</config> at C:/Omnetpp/omnetpp-6.0.3/samples/simu5g/simulations/SatCom/satellite_handover/\\./demo.xml:1"
par SingleSatellite_Standalone.configurator assignAddresses true
par SingleSatellite_Standalone.configurator assignUniqueAddresses true
par SingleSatellite_Standalone.configurator assignDisjunctSubnetAddresses true
par SingleSatellite_Standalone.configurator addStaticRoutes true
par SingleSatellite_Standalone.configurator addDefaultRoutes true
par SingleSatellite_Standalone.configurator addSubnetRoutes true
par SingleSatellite_Standalone.configurator addDirectRoutes true
par SingleSatellite_Standalone.configurator optimizeRoutes true
par SingleSatellite_Standalone.configurator dumpTopology false
par SingleSatellite_Standalone.configurator dumpLinks false
par SingleSatellite_Standalone.configurator dumpAddresses false
par SingleSatellite_Standalone.configurator dumpRoutes false
par SingleSatellite_Standalone.configurator dumpConfig "\"\""
par SingleSatellite_Standalone.binder typename "\"simu5g.common.binder.Binder\""
par SingleSatellite_Standalone.binder blerShift 5
par SingleSatellite_Standalone.binder maxDataRatePerRb 1.16Mbps
attr unit Mbps
par SingleSatellite_Standalone.binder printTrafficGeneratorConfig false
par SingleSatellite_Standalone.carrierAggregation.componentCarrier[0] typename "\"simu5g.common.carrierAggregation.ComponentCarrier\""
par SingleSatellite_Standalone.carrierAggregation.componentCarrier[0] carrierFrequency 2GHz
attr unit GHz
par SingleSatellite_Standalone.carrierAggregation.componentCarrier[0] numBands 50
par SingleSatellite_Standalone.carrierAggregation.componentCarrier[0] numerologyIndex 0
par SingleSatellite_Standalone.carrierAggregation.componentCarrier[0] useTdd false
par SingleSatellite_Standalone.carrierAggregation.componentCarrier[0] tddNumSymbolsDl 7
par SingleSatellite_Standalone.carrierAggregation.componentCarrier[0] tddNumSymbolsUl 7
par SingleSatellite_Standalone.carrierAggregation typename "\"simu5g.common.carrierAggregation.CarrierAggregation\""
par SingleSatellite_Standalone.carrierAggregation numComponentCarriers 1
par SingleSatellite_Standalone.server.pppg$i[0].channel typename "\"ned.IdealChannel\""
par SingleSatellite_Standalone.server.ppp[0].phys$o.channel typename "\"ned.IdealChannel\""
par SingleSatellite_Standalone.server.interfaceTable typename "\"inet.networklayer.common.InterfaceTable\""
par SingleSatellite_Standalone.server.interfaceTable displayAddresses false
par SingleSatellite_Standalone.server.cb typename "\"inet.common.MessageDispatcher\""
par SingleSatellite_Standalone.server.cb displayStringTextFormat "\"processed %p pk (%l)\""
par SingleSatellite_Standalone.server.cb forwardServiceRegistration true
par SingleSatellite_Standalone.server.cb forwardProtocolRegistration true
par SingleSatellite_Standalone.server.bl typename "\"inet.common.MessageDispatcher\""
par SingleSatellite_Standalone.server.bl displayStringTextFormat "\"processed %p pk (%l)\""
par SingleSatellite_Standalone.server.bl forwardServiceRegistration true
par SingleSatellite_Standalone.server.bl forwardProtocolRegistration true
par SingleSatellite_Standalone.server.li typename "\"inet.common.MessageDispatcher\""
par SingleSatellite_Standalone.server.li displayStringTextFormat "\"processed %p pk (%l)\""
par SingleSatellite_Standalone.server.li forwardServiceRegistration true
par SingleSatellite_Standalone.server.li forwardProtocolRegistration true
par SingleSatellite_Standalone.server.lo[0].upperLayerIn.channel typename "\"ned.IdealChannel\""
par SingleSatellite_Standalone.server.lo[0].lo.upperLayerOut.channel typename "\"ned.IdealChannel\""
par SingleSatellite_Standalone.server.lo[0].lo typename "\"inet.linklayer.loopback.Loopback\""
par SingleSatellite_Standalone.server.lo[0].lo interfaceTableModule "\"SingleSatellite_Standalone.server.interfaceTable\""
par SingleSatellite_Standalone.server.lo[0].lo mtu 4470B
attr unit B
scalar SingleSatellite_Standalone.server.lo[0].lo rcvdPkFromHl:count 0
attr interpolationmode none
attr recordingmode count
attr source packetReceivedFromUpper
attr title "packets received from higher layer, count"
scalar SingleSatellite_Standalone.server.lo[0].lo rcvdPkFromHl:sum(packetBytes) 0
attr interpolationmode none
attr recordingmode sum(packetBytes)
attr source packetReceivedFromUpper
attr title "packets received from higher layer, sum(packetBytes)"
scalar SingleSatellite_Standalone.server.lo[0].lo passedUpPk:count 0
attr interpolationmode none
attr recordingmode count
attr source packetSentToUpper
attr title "packets passed to higher layer, count"
scalar SingleSatellite_Standalone.server.lo[0].lo passedUpPk:sum(packetBytes) 0
attr interpolationmode none
attr recordingmode sum(packetBytes)
attr source packetSentToUpper
attr title "packets passed to higher layer, sum(packetBytes)"
par SingleSatellite_Standalone.server.lo[0] typename "\"inet.linklayer.loopback.LoopbackInterface\""
par SingleSatellite_Standalone.server.lo[0] displayStringTextFormat "\"%a (%i)\\n%m\""
par SingleSatellite_Standalone.server.lo[0] recordPcap false
par SingleSatellite_Standalone.server.lo[0] numPcapRecorders 0
par SingleSatellite_Standalone.server.lo[0] interfaceTableModule "\"SingleSatellite_Standalone.server.interfaceTable\""
scalar SingleSatellite_Standalone.server.lo[0] packetDropInterfaceDown:count 0
attr interpolationmode none
attr recordingmode count
attr source packetDropReasonIsInterfaceDown(packetDropped)
attr title "packet drops: interface down, count"
scalar SingleSatellite_Standalone.server.lo[0] packetDropInterfaceDown:sum(packetBytes) 0
attr interpolationmode none
attr recordingmode sum(packetBytes)
attr source packetDropReasonIsInterfaceDown(packetDropped)
attr title "packet drops: interface down, sum(packetBytes)"
scalar SingleSatellite_Standalone.server.lo[0] packetDropNoCarrier:count 0
attr interpolationmode none
attr recordingmode count
attr source packetDropReasonIsNoCarrier(packetDropped)
attr title "packet drops: no carrier, count"
scalar SingleSatellite_Standalone.server.lo[0] packetDropNoCarrier:sum(packetBytes) 0
attr interpolationmode none
attr recordingmode sum(packetBytes)
attr source packetDropReasonIsNoCarrier(packetDropped)
attr title "packet drops: no carrier, sum(packetBytes)"
par SingleSatellite_Standalone.server.ppp[0].phys$i.channel typename "\"ned.IdealChannel\""
par SingleSatellite_Standalone.server.ppp[0].ppp.phys$o.channel typename "\"ned.IdealChannel\""
par SingleSatellite_Standalone.server.ppp[0].ppp.upperLayerOut.channel typename "\"ned.IdealChannel\""
par SingleSatellite_Standalone.server.ppp[0].upperLayerIn.channel typename "\"ned.IdealChannel\""
par SingleSatellite_Standalone.server.ppp[0].queue typename "\"inet.queueing.queue.DropTailQueue\""
par SingleSatellite_Standalone.server.ppp[0].queue displayStringTextFormat "\"contains %p pk (%l) pushed %u\\npulled %o removed %r dropped %d\""
par SingleSatellite_Standalone.server.ppp[0].queue packetCapacity 10000
par SingleSatellite_Standalone.server.ppp[0].queue dataCapacity -1b
attr unit b
par SingleSatellite_Standalone.server.ppp[0].queue dropperClass "\"inet::queueing::PacketAtCollectionEndDropper\""
par SingleSatellite_Standalone.server.ppp[0].queue comparatorClass "\"\""
par SingleSatellite_Standalone.server.ppp[0].queue bufferModule "\"\""
scalar SingleSatellite_Standalone.server.ppp[0].queue queueLength:last 0
attr autoWarmupFilter false
attr interpolationmode sample-hold
attr recordingmode last
attr source "warmup(atomic(constant0(packetPushEnded) + count(packetPushStarted) - count(packetPulled) - count(packetRemoved) - count(packetDropped)))"
attr title "queue length, last"
attr unit pk
scalar SingleSatellite_Standalone.server.ppp[0].queue queueLength:max 0
attr autoWarmupFilter false
attr interpolationmode sample-hold
attr recordingmode max
attr source "warmup(atomic(constant0(packetPushEnded) + count(packetPushStarted) - count(packetPulled) - count(packetRemoved) - count(packetDropped)))"
attr title "queue length, max"
attr unit pk
scalar SingleSatellite_Standalone.server.ppp[0].queue queueLength:timeavg 0
attr autoWarmupFilter false
attr interpolationmode sample-hold
attr recordingmode timeavg
attr source "warmup(atomic(constant0(packetPushEnded) + count(packetPushStarted) - count(packetPulled) - count(packetRemoved) - count(packetDropped)))"
attr title "queue length, timeavg"
attr unit pk
scalar SingleSatellite_Standalone.server.ppp[0].queue queueBitLength:last 0
attr autoWarmupFilter false
attr interpolationmode sample-hold
attr recordingmode last
attr source "warmup(atomic(constant0(packetPushEnded) + sum(packetLength(packetPushStarted)) - sum(packetLength(packetPulled)) - sum(packetLength(packetRemoved)) - sum(packetLength(packetDropped))))"
attr title "queue bit length, last"
attr unit b
scalar SingleSatellite_Standalone.server.ppp[0].queue queueBitLength:max 0
attr autoWarmupFilter false
attr interpolationmode sample-hold
attr recordingmode max
attr source "warmup(atomic(constant0(packetPushEnded) + sum(packetLength(packetPushStarted)) - sum(packetLength(packetPulled)) - sum(packetLength(packetRemoved)) - sum(packetLength(packetDropped))))"
attr title "queue bit length, max"
attr unit b
scalar SingleSatellite_Standalone.server.ppp[0].queue queueBitLength:timeavg 0
attr autoWarmupFilter false
attr interpolationmode sample-hold
attr recordingmode timeavg
attr source "warmup(atomic(constant0(packetPushEnded) + sum(packetLength(packetPushStarted)) - sum(packetLength(packetPulled)) - sum(packetLength(packetRemoved)) - sum(packetLength(packetDropped))))"
attr title "queue bit length, timeavg"
attr unit b
statistic SingleSatellite_Standalone.server.ppp[0].queue queueingTime:histogram
field count 0
field mean nan
field stddev nan
field min nan
field max nan
field sum 0
field sqrsum 0
attr interpolationmode none
attr recordingmode histogram
attr source queueingTime(packetPulled)
attr title "queueing times"
attr unit s
bin	-inf	0
bin	0	0
bin	1	0
scalar SingleSatellite_Standalone.server.ppp[0].queue outgoingPackets:count 0
attr recordingmode count
attr source packetPulled
attr title "outgoing packets, count"
attr unit pk
scalar SingleSatellite_Standalone.server.ppp[0].queue outgoingPacketLengths:sum 0
attr interpolationmode none
attr recordingmode sum
attr source packetLength(packetPulled)
attr title "outgoing packet lengths, sum"
attr unit b
statistic SingleSatellite_Standalone.server.ppp[0].queue outgoingPacketLengths:histogram
field count 0
field mean nan
field stddev nan
field min nan
field max nan
field sum 0
field sqrsum 0
attr interpolationmode none
attr recordingmode histogram
attr source packetLength(packetPulled)
attr title "outgoing packet lengths"
attr unit b
bin	-inf	0
bin	0	0
bin	1	0
statistic SingleSatellite_Standalone.server.ppp[0].queue flowQueueingTime:histogram
field count 0
field mean nan
field stddev nan
field min nan
field max nan
field sum 0
field sqrsum 0
attr interpolationmode none
attr recordingmode histogram
attr source queueingTime(demuxFlow(packetPulled))
attr title "flow queueing times"
attr unit s
bin	-inf	0
bin	0	0
bin	1	0
scalar SingleSatellite_Standalone.server.ppp[0].queue incomingPackets:count 0
attr recordingmode count
attr source packetPushStarted
attr title "incoming packets, count"
attr unit pk
scalar SingleSatellite_Standalone.server.ppp[0].queue incomingPacketLengths:sum 0
attr interpolationmode none
attr recordingmode sum
attr source packetLength(packetPushStarted)
attr title "incoming packet lengths, sum"
attr unit b
statistic SingleSatellite_Standalone.server.ppp[0].queue incomingPacketLengths:histogram
field count 0
field mean nan
field stddev nan
field min nan
field max nan
field sum 0
field sqrsum 0
attr interpolationmode none
attr recordingmode histogram
attr source packetLength(packetPushStarted)
attr title "incoming packet lengths"
attr unit b
bin	-inf	0
bin	0	0
bin	1	0
scalar SingleSatellite_Standalone.server.ppp[0].queue droppedPacketsQueueOverflow:count 0
attr interpolationmode none
attr recordingmode count
attr source packetDropReasonIsQueueOverflow(packetDropped)
attr title "dropped packets: queue overflow, count"
attr unit pk
scalar SingleSatellite_Standalone.server.ppp[0].queue droppedPacketLengthsQueueOverflow:sum 0
attr interpolationmode none
attr recordingmode sum
attr source packetLength(packetDropReasonIsQueueOverflow(packetDropped))
attr title "dropped packet lengths: queue overflow, sum"
attr unit b
par SingleSatellite_Standalone.server.ppp[0].ppp typename "\"inet.linklayer.ppp.Ppp\""
par SingleSatellite_Standalone.server.ppp[0].ppp interfaceTableModule "\"SingleSatellite_Standalone.server.interfaceTable\""
par SingleSatellite_Standalone.server.ppp[0].ppp displayStringTextFormat "\"rate: %b\\nsent: %s, rcvd: %r\\nqueue: %q, drop: %d\""
par SingleSatellite_Standalone.server.ppp[0].ppp sendRawBytes false
par SingleSatellite_Standalone.server.ppp[0].ppp mtu 4470B
attr unit B
par SingleSatellite_Standalone.server.ppp[0].ppp stopOperationExtraTime -1s
attr unit s
par SingleSatellite_Standalone.server.ppp[0].ppp stopOperationTimeout 2s
attr unit s
scalar SingleSatellite_Standalone.server.ppp[0].ppp txPk:count 0
attr interpolationmode none
attr recordingmode count
attr source packetSentToLower
attr title "packets transmitted, count"
scalar SingleSatellite_Standalone.server.ppp[0].ppp txPk:sum(packetBytes) 0
attr interpolationmode none
attr recordingmode sum(packetBytes)
attr source packetSentToLower
attr title "packets transmitted, sum(packetBytes)"
scalar SingleSatellite_Standalone.server.ppp[0].ppp rcvdPkFromHl:count 0
attr interpolationmode none
attr recordingmode count
attr source packetReceivedFromUpper
attr title "packets received from higher layer, count"
scalar SingleSatellite_Standalone.server.ppp[0].ppp rcvdPkFromHl:sum(packetBytes) 0
attr interpolationmode none
attr recordingmode sum(packetBytes)
attr source packetReceivedFromUpper
attr title "packets received from higher layer, sum(packetBytes)"
scalar SingleSatellite_Standalone.server.ppp[0].ppp passedUpPk:count 0
attr interpolationmode none
attr recordingmode count
attr source packetSentToUpper
attr title "packets passed to higher layer, count"
scalar SingleSatellite_Standalone.server.ppp[0].ppp passedUpPk:sum(packetBytes) 0
attr interpolationmode none
attr recordingmode sum(packetBytes)
attr source packetSentToUpper
attr title "packets passed to higher layer, sum(packetBytes)"
scalar SingleSatellite_Standalone.server.ppp[0].ppp packetDropIncorrectlyReceived:count 0
attr interpolationmode none
attr recordingmode count
attr source packetDropReasonIsIncorrectlyReceived(packetDropped)
attr title "packet drop: incorrectly received, count"
scalar SingleSatellite_Standalone.server.ppp[0].ppp packetDropIncorrectlyReceived:sum(packetBytes) 0
attr interpolationmode none
attr recordingmode sum(packetBytes)
attr source packetDropReasonIsIncorrectlyReceived(packetDropped)
attr title "packet drop: incorrectly received, sum(packetBytes)"
scalar SingleSatellite_Standalone.server.ppp[0].ppp packetDropInterfaceDown:count 0
attr interpolationmode none
attr recordingmode count
attr source packetDropReasonIsInterfaceDown(packetDropped)
attr title "packet drop: interface down, count"
scalar SingleSatellite_Standalone.server.ppp[0].ppp packetDropInterfaceDown:sum(packetBytes) 0
attr interpolationmode none
attr recordingmode sum(packetBytes)
attr source packetDropReasonIsInterfaceDown(packetDropped)
attr title "packet drop: interface down, sum(packetBytes)"
scalar SingleSatellite_Standalone.server.ppp[0].ppp rxPkOk:count 0
attr interpolationmode none
attr recordingmode count
attr source rxPkOk
attr title "packets received OK, count"
scalar SingleSatellite_Standalone.server.ppp[0].ppp rxPkOk:sum(packetBytes) 0
attr interpolationmode none
attr recordingmode sum(packetBytes)
attr source rxPkOk
attr title "packets received OK, sum(packetBytes)"
scalar SingleSatellite_Standalone.server.ppp[0].ppp transmissionState:timeavg 0
attr interpolationmode sample-hold
attr recordingmode timeavg
attr source transmissionStateChanged
attr title "tx state, timeavg"
par SingleSatellite_Standalone.server.ppp[0] typename "\"inet.linklayer.ppp.PppInterface\""
par SingleSatellite_Standalone.server.ppp[0] displayStringTextFormat "\"%a (%i)\\n%m\""
par SingleSatellite_Standalone.server.ppp[0] recordPcap false
par SingleSatellite_Standalone.server.ppp[0] numPcapRecorders 0
par SingleSatellite_Standalone.server.ppp[0] interfaceTableModule "\"SingleSatellite_Standalone.server.interfaceTable\""
scalar SingleSatellite_Standalone.server.ppp[0] packetDropInterfaceDown:count 0
attr interpolationmode none
attr recordingmode count
attr source packetDropReasonIsInterfaceDown(packetDropped)
attr title "packet drops: interface down, count"
scalar SingleSatellite_Standalone.server.ppp[0] packetDropInterfaceDown:sum(packetBytes) 0
attr interpolationmode none
attr recordingmode sum(packetBytes)
attr source packetDropReasonIsInterfaceDown(packetDropped)
attr title "packet drops: interface down, sum(packetBytes)"
scalar SingleSatellite_Standalone.server.ppp[0] packetDropNoCarrier:count 0
attr interpolationmode none
attr recordingmode count
attr source packetDropReasonIsNoCarrier(packetDropped)
attr title "packet drops: no carrier, count"
scalar SingleSatellite_Standalone.server.ppp[0] packetDropNoCarrier:sum(packetBytes) 0
attr interpolationmode none
attr recordingmode sum(packetBytes)
attr source packetDropReasonIsNoCarrier(packetDropped)
attr title "packet drops: no carrier, sum(packetBytes)"
par SingleSatellite_Standalone.server.ipv4.transportIn.channel typename "\"ned.IdealChannel\""
par SingleSatellite_Standalone.server.ipv4.up.out[0].channel typename "\"ned.IdealChannel\""
par SingleSatellite_Standalone.server.ipv4.lp.out[2].channel typename "\"ned.IdealChannel\""
par SingleSatellite_Standalone.server.ipv4.ifIn.channel typename "\"ned.IdealChannel\""
par SingleSatellite_Standalone.server.ipv4.configurator typename "\"inet.networklayer.configurator.ipv4.Ipv4NodeConfigurator\""
par SingleSatellite_Standalone.server.ipv4.configurator interfaceTableModule "\"SingleSatellite_Standalone.server.interfaceTable\""
par SingleSatellite_Standalone.server.ipv4.configurator routingTableModule "\"SingleSatellite_Standalone.server.ipv4.routingTable\""
par SingleSatellite_Standalone.server.ipv4.configurator networkConfiguratorModule "\"configurator\""
par SingleSatellite_Standalone.server.ipv4.configurator configureRoutingTable true
par SingleSatellite_Standalone.server.ipv4.routingTable typename "\"inet.networklayer.ipv4.Ipv4RoutingTable\""
par SingleSatellite_Standalone.server.ipv4.routingTable interfaceTableModule "\"SingleSatellite_Standalone.server.interfaceTable\""
par SingleSatellite_Standalone.server.ipv4.routingTable routerId "\"auto\""
par SingleSatellite_Standalone.server.ipv4.routingTable netmaskRoutes "\"*\""
par SingleSatellite_Standalone.server.ipv4.routingTable forwarding false
par SingleSatellite_Standalone.server.ipv4.routingTable multicastForwarding false
par SingleSatellite_Standalone.server.ipv4.routingTable useAdminDist false
par SingleSatellite_Standalone.server.ipv4.routingTable routingFile "\"\""
par SingleSatellite_Standalone.server.ipv4.natTable typename "\"inet.networklayer.ipv4.Ipv4NatTable\""
par SingleSatellite_Standalone.server.ipv4.natTable networkProtocolModule "\"^.ip\""
par SingleSatellite_Standalone.server.ipv4.natTable config "<config/> at content:1"
par SingleSatellite_Standalone.server.ipv4.up typename "\"inet.common.MessageDispatcher\""
par SingleSatellite_Standalone.server.ipv4.up displayStringTextFormat "\"processed %p pk (%l)\""
par SingleSatellite_Standalone.server.ipv4.up forwardServiceRegistration true
par SingleSatellite_Standalone.server.ipv4.up forwardProtocolRegistration true
par SingleSatellite_Standalone.server.ipv4.igmp typename "\"inet.networklayer.ipv4.Igmpv2\""
par SingleSatellite_Standalone.server.ipv4.igmp interfaceTableModule "\"SingleSatellite_Standalone.server.interfaceTable\""
par SingleSatellite_Standalone.server.ipv4.igmp routingTableModule "\"SingleSatellite_Standalone.server.ipv4.routingTable\""
par SingleSatellite_Standalone.server.ipv4.igmp crcMode "\"declared\""
attr enum declared,computed
par SingleSatellite_Standalone.server.ipv4.igmp enabled true
par SingleSatellite_Standalone.server.ipv4.igmp robustnessVariable 2
par SingleSatellite_Standalone.server.ipv4.igmp queryInterval 125s
attr unit s
par SingleSatellite_Standalone.server.ipv4.igmp queryResponseInterval 10s
attr unit s
par SingleSatellite_Standalone.server.ipv4.igmp groupMembershipInterval 260s
attr unit s
par SingleSatellite_Standalone.server.ipv4.igmp otherQuerierPresentInterval 255s
attr unit s
par SingleSatellite_Standalone.server.ipv4.igmp startupQueryInterval 31.25s
attr unit s
par SingleSatellite_Standalone.server.ipv4.igmp startupQueryCount 2
par SingleSatellite_Standalone.server.ipv4.igmp lastMemberQueryInterval 1s
attr unit s
par SingleSatellite_Standalone.server.ipv4.igmp lastMemberQueryCount 2
par SingleSatellite_Standalone.server.ipv4.igmp unsolicitedReportInterval 10s
attr unit s
par SingleSatellite_Standalone.server.ipv4.icmp typename "\"inet.networklayer.ipv4.Icmp\""
par SingleSatellite_Standalone.server.ipv4.icmp interfaceTableModule "\"SingleSatellite_Standalone.server.interfaceTable\""
par SingleSatellite_Standalone.server.ipv4.icmp routingTableModule "\"SingleSatellite_Standalone.server.ipv4.routingTable\""
par SingleSatellite_Standalone.server.ipv4.icmp crcMode "\"declared\""
attr enum declared,computed
attr mutable ""
par SingleSatellite_Standalone.server.ipv4.icmp quoteLength 8B
attr mutable ""
attr unit B
par SingleSatellite_Standalone.server.ipv4.mp typename "\"inet.common.MessageDispatcher\""
par SingleSatellite_Standalone.server.ipv4.mp displayStringTextFormat "\"processed %p pk (%l)\""
par SingleSatellite_Standalone.server.ipv4.mp forwardServiceRegistration true
par SingleSatellite_Standalone.server.ipv4.mp forwardProtocolRegistration true
par SingleSatellite_Standalone.server.ipv4.ip typename "\"inet.networklayer.ipv4.Ipv4\""
par SingleSatellite_Standalone.server.ipv4.ip interfaceTableModule "\"SingleSatellite_Standalone.server.interfaceTable\""
par SingleSatellite_Standalone.server.ipv4.ip routingTableModule "\"SingleSatellite_Standalone.server.ipv4.routingTable\""
par SingleSatellite_Standalone.server.ipv4.ip arpModule "\"SingleSatellite_Standalone.server.ipv4.arp\""
par SingleSatellite_Standalone.server.ipv4.ip icmpModule "\"SingleSatellite_Standalone.server.ipv4.icmp\""
par SingleSatellite_Standalone.server.ipv4.ip crcMode "\"declared\""
attr enum declared,computed
par SingleSatellite_Standalone.server.ipv4.ip timeToLive 32
par SingleSatellite_Standalone.server.ipv4.ip multicastTimeToLive 32
par SingleSatellite_Standalone.server.ipv4.ip fragmentTimeout 60s
attr unit s
par SingleSatellite_Standalone.server.ipv4.ip limitedBroadcast false
par SingleSatellite_Standalone.server.ipv4.ip directBroadcastInterfaces "\"\""
scalar SingleSatellite_Standalone.server.ipv4.ip packetDropAddressResolutionFailed:count 0
attr interpolationmode none
attr recordingmode count
attr source packetDropReasonIsAddressResolutionFailed(packetDropped)
attr title "packet drop: address resolution failed, count"
scalar SingleSatellite_Standalone.server.ipv4.ip packetDropAddressResolutionFailed:sum(packetBytes) 0
attr interpolationmode none
attr recordingmode sum(packetBytes)
attr source packetDropReasonIsAddressResolutionFailed(packetDropped)
attr title "packet drop: address resolution failed, sum(packetBytes)"
scalar SingleSatellite_Standalone.server.ipv4.ip packetDropHopLimitReached:count 0
attr interpolationmode none
attr recordingmode count
attr source packetDropReasonIsHopLimitReached(packetDropped)
attr title "packet drop: hop limit reached, count"
scalar SingleSatellite_Standalone.server.ipv4.ip packetDropHopLimitReached:sum(packetBytes) 0
attr interpolationmode none
attr recordingmode sum(packetBytes)
attr source packetDropReasonIsHopLimitReached(packetDropped)
attr title "packet drop: hop limit reached, sum(packetBytes)"
scalar SingleSatellite_Standalone.server.ipv4.ip packetDropForwardingDisabled:count 0
attr interpolationmode none
attr recordingmode count
attr source packetDropReasonIsForwardingDisabled(packetDropped)
attr title "packet drop: forwarding disabled, count"
scalar SingleSatellite_Standalone.server.ipv4.ip packetDropForwardingDisabled:sum(packetBytes) 0
attr interpolationmode none
attr recordingmode sum(packetBytes)
attr source packetDropReasonIsForwardingDisabled(packetDropped)
attr title "packet drop: forwarding disabled, sum(packetBytes)"
scalar SingleSatellite_Standalone.server.ipv4.ip packetDropNoInterfaceFound:count 0
attr interpolationmode none
attr recordingmode count
attr source packetDropReasonIsNoInterfaceFound(packetDropped)
attr title "packet drop: no interface found, count"
scalar SingleSatellite_Standalone.server.ipv4.ip packetDropNoInterfaceFound:sum(packetBytes) 0
attr interpolationmode none
attr recordingmode sum(packetBytes)
attr source packetDropReasonIsNoInterfaceFound(packetDropped)
attr title "packet drop: no interface found, sum(packetBytes)"
scalar SingleSatellite_Standalone.server.ipv4.ip packetDropNoRouteFound:count 0
attr interpolationmode none
attr recordingmode count
attr source packetDropReasonIsNoRouteFound(packetDropped)
attr title "packet drop: no route found, count"
scalar SingleSatellite_Standalone.server.ipv4.ip packetDropNoRouteFound:sum(packetBytes) 0
attr interpolationmode none
attr recordingmode sum(packetBytes)
attr source packetDropReasonIsNoRouteFound(packetDropped)
attr title "packet drop: no route found, sum(packetBytes)"
scalar SingleSatellite_Standalone.server.ipv4.ip packetDropUndefined:count 0
attr interpolationmode none
attr recordingmode count
attr source packetDropReasonIsUndefined(packetDropped)
attr title "packet drop: undefined, count"
scalar SingleSatellite_Standalone.server.ipv4.ip packetDropUndefined:sum(packetBytes) 0
attr interpolationmode none
attr recordingmode sum(packetBytes)
attr source packetDropReasonIsUndefined(packetDropped)
attr title "packet drop: undefined, sum(packetBytes)"
par SingleSatellite_Standalone.server.ipv4.arp typename "\"inet.networklayer.arp.ipv4.Arp\""
par SingleSatellite_Standalone.server.ipv4.arp interfaceTableModule "\"SingleSatellite_Standalone.server.interfaceTable\""
par SingleSatellite_Standalone.server.ipv4.arp routingTableModule "\"SingleSatellite_Standalone.server.ipv4.routingTable\""
par SingleSatellite_Standalone.server.ipv4.arp retryTimeout 1s
attr unit s
par SingleSatellite_Standalone.server.ipv4.arp retryCount 3
par SingleSatellite_Standalone.server.ipv4.arp cacheTimeout 120s
attr unit s
par SingleSatellite_Standalone.server.ipv4.arp proxyArpInterfaces "\"\""
scalar SingleSatellite_Standalone.server.ipv4.arp arpReplySent:count 0
attr recordingmode count
attr source arpReplySent
attr title "ARP replies sent, count"
scalar SingleSatellite_Standalone.server.ipv4.arp arpReplySent:sum(packetBytes) 0
attr recordingmode sum(packetBytes)
attr source arpReplySent
attr title "ARP replies sent, sum(packetBytes)"
scalar SingleSatellite_Standalone.server.ipv4.arp arpRequestSent:count 0
attr recordingmode count
attr source arpRequestSent
attr title "ARP request sent, count"
scalar SingleSatellite_Standalone.server.ipv4.arp arpRequestSent:sum(packetBytes) 0
attr recordingmode sum(packetBytes)
attr source arpRequestSent
attr title "ARP request sent, sum(packetBytes)"
scalar SingleSatellite_Standalone.server.ipv4.arp arpResolutionFailed:count 0
attr recordingmode count
attr title "ARP failed resolutions, count"
scalar SingleSatellite_Standalone.server.ipv4.arp arpResolutionCompleted:count 0
attr recordingmode count
attr title "ARP completed resolutions, count"
scalar SingleSatellite_Standalone.server.ipv4.arp arpResolutionInitiated:count 0
attr recordingmode count
attr title "ARP initiated resolutions, count"
par SingleSatellite_Standalone.server.ipv4.lp typename "\"inet.common.MessageDispatcher\""
par SingleSatellite_Standalone.server.ipv4.lp displayStringTextFormat "\"processed %p pk (%l)\""
par SingleSatellite_Standalone.server.ipv4.lp forwardServiceRegistration true
par SingleSatellite_Standalone.server.ipv4.lp forwardProtocolRegistration true
par SingleSatellite_Standalone.server.ipv4 typename "\"inet.networklayer.ipv4.Ipv4NetworkLayer\""
par SingleSatellite_Standalone.server.ipv4 forwarding false
par SingleSatellite_Standalone.server.ipv4 multicastForwarding false
par SingleSatellite_Standalone.server.ipv4 interfaceTableModule "\"SingleSatellite_Standalone.server.interfaceTable\""
par SingleSatellite_Standalone.server.ipv4 displayStringTextFormat "\"%i\""
par SingleSatellite_Standalone.server.nl typename "\"inet.common.MessageDispatcher\""
par SingleSatellite_Standalone.server.nl displayStringTextFormat "\"processed %p pk (%l)\""
par SingleSatellite_Standalone.server.nl forwardServiceRegistration true
par SingleSatellite_Standalone.server.nl forwardProtocolRegistration true
par SingleSatellite_Standalone.server.udp typename "\"inet.transportlayer.udp.Udp\""
par SingleSatellite_Standalone.server.udp interfaceTableModule "\"SingleSatellite_Standalone.server.interfaceTable\""
par SingleSatellite_Standalone.server.udp icmpModule "\"^.ipv4.icmp\""
par SingleSatellite_Standalone.server.udp icmpv6Module "\"^.ipv6.icmpv6\""
par SingleSatellite_Standalone.server.udp crcMode "\"declared\""
attr enum disabled,declared,computed
par SingleSatellite_Standalone.server.udp defaultMulticastLoop true
scalar SingleSatellite_Standalone.server.udp packetReceived:count 0
attr interpolationmode none
attr recordingmode count
attr source packetReceived
attr title "packets received, count"
scalar SingleSatellite_Standalone.server.udp packetReceived:sum(packetBytes) 0
attr interpolationmode none
attr recordingmode sum(packetBytes)
attr source packetReceived
attr title "packets received, sum(packetBytes)"
scalar SingleSatellite_Standalone.server.udp packetSent:count 0
attr interpolationmode none
attr recordingmode count
attr source packetSent
attr title "packets sent, count"
scalar SingleSatellite_Standalone.server.udp packetSent:sum(packetBytes) 0
attr interpolationmode none
attr recordingmode sum(packetBytes)
attr source packetSent
attr title "packets sent, sum(packetBytes)"
scalar SingleSatellite_Standalone.server.udp passedUpPk:count 0
attr interpolationmode none
attr recordingmode count
attr source packetSentToUpper
attr title "packets passed up, count"
scalar SingleSatellite_Standalone.server.udp droppedPkWrongPort:count 0
attr interpolationmode none
attr recordingmode count
attr source packetDropReasonIsNoPortFound(packetDropped)
attr title "packets dropped (wrong port), count"
scalar SingleSatellite_Standalone.server.udp droppedPkBadChecksum:count 0
attr interpolationmode none
attr recordingmode count
attr source packetDropReasonIsIncorrectlyReceived(packetDropped)
attr title "packets dropped (checksum error), count"
par SingleSatellite_Standalone.server.tcp typename "\"inet.transportlayer.tcp.Tcp\""
par SingleSatellite_Standalone.server.tcp crcMode "\"declared\""
attr enum declared,computed
par SingleSatellite_Standalone.server.tcp advertisedWindow 7504
par SingleSatellite_Standalone.server.tcp delayedAcksEnabled false
par SingleSatellite_Standalone.server.tcp nagleEnabled true
par SingleSatellite_Standalone.server.tcp limitedTransmitEnabled false
par SingleSatellite_Standalone.server.tcp increasedIWEnabled false
par SingleSatellite_Standalone.server.tcp sackSupport false
par SingleSatellite_Standalone.server.tcp windowScalingSupport false
par SingleSatellite_Standalone.server.tcp windowScalingFactor -1
par SingleSatellite_Standalone.server.tcp timestampSupport false
par SingleSatellite_Standalone.server.tcp mss 536
par SingleSatellite_Standalone.server.tcp msl 120s
attr unit s
par SingleSatellite_Standalone.server.tcp tcpAlgorithmClass "\"TcpReno\""
attr enum TcpVegas,TcpWestwood,TcpNewReno,TcpReno,TcpTahoe,TcpNoCongestionControl
par SingleSatellite_Standalone.server.tcp useDataNotification false
par SingleSatellite_Standalone.server.tcp dupthresh 3
par SingleSatellite_Standalone.server.tcp initialSsthresh 4294967295
par SingleSatellite_Standalone.server.tcp stopOperationExtraTime 0s
attr unit s
par SingleSatellite_Standalone.server.tcp stopOperationTimeout 2s
attr unit s
par SingleSatellite_Standalone.server.tcp ecnWillingness false
par SingleSatellite_Standalone.server.tcp dctcpGamma 0.0625
par SingleSatellite_Standalone.server.tn typename "\"inet.common.MessageDispatcher\""
par SingleSatellite_Standalone.server.tn displayStringTextFormat "\"processed %p pk (%l)\""
par SingleSatellite_Standalone.server.tn forwardServiceRegistration true
par SingleSatellite_Standalone.server.tn forwardProtocolRegistration true
par SingleSatellite_Standalone.server.at typename "\"inet.common.MessageDispatcher\""
par SingleSatellite_Standalone.server.at displayStringTextFormat "\"processed %p pk (%l)\""
par SingleSatellite_Standalone.server.at forwardServiceRegistration true
par SingleSatellite_Standalone.server.at forwardProtocolRegistration true
par SingleSatellite_Standalone.server typename "\"inet.node.inet.StandardHost\""
par SingleSatellite_Standalone.server hasStatus false
par SingleSatellite_Standalone.server osgModel "\"\""
par SingleSatellite_Standalone.server osgModelColor "\"\""
par SingleSatellite_Standalone.server canvasImage "\"\""
par SingleSatellite_Standalone.server canvasImageColor "\"\""
par SingleSatellite_Standalone.server recordPcap false
par SingleSatellite_Standalone.server numPcapRecorders 0
par SingleSatellite_Standalone.server numLoInterfaces 1
par SingleSatellite_Standalone.server numWlanInterfaces 0
par SingleSatellite_Standalone.server numEthInterfaces 0
par SingleSatellite_Standalone.server numPppInterfaces 0
par SingleSatellite_Standalone.server numTunInterfaces 0
par SingleSatellite_Standalone.server numVirtInterfaces 0
par SingleSatellite_Standalone.server fcsMode "\"declared\""
attr enum declared,computed
par SingleSatellite_Standalone.server hasIpv4 true
par SingleSatellite_Standalone.server hasIpv6 false
par SingleSatellite_Standalone.server hasGn false
par SingleSatellite_Standalone.server forwarding false
par SingleSatellite_Standalone.server multicastForwarding false
par SingleSatellite_Standalone.server hasUdp true
par SingleSatellite_Standalone.server hasTcp true
par SingleSatellite_Standalone.server hasSctp false
par SingleSatellite_Standalone.server numApps 0
par SingleSatellite_Standalone.router.pppg$i[0].channel typename "\"ned.IdealChannel\""
par SingleSatellite_Standalone.router.ppp[0].phys$o.channel typename "\"ned.IdealChannel\""
par SingleSatellite_Standalone.router.pppg$i[1].channel typename "\"ned.IdealChannel\""
par SingleSatellite_Standalone.router.ppp[1].phys$o.channel typename "\"ned.IdealChannel\""
par SingleSatellite_Standalone.router.interfaceTable typename "\"inet.networklayer.common.InterfaceTable\""
par SingleSatellite_Standalone.router.interfaceTable displayAddresses false
par SingleSatellite_Standalone.router.cb typename "\"inet.common.MessageDispatcher\""
par SingleSatellite_Standalone.router.cb displayStringTextFormat "\"processed %p pk (%l)\""
par SingleSatellite_Standalone.router.cb forwardServiceRegistration true
par SingleSatellite_Standalone.router.cb forwardProtocolRegistration true
par SingleSatellite_Standalone.router.bl typename "\"inet.common.MessageDispatcher\""
par SingleSatellite_Standalone.router.bl displayStringTextFormat "\"processed %p pk (%l)\""
par SingleSatellite_Standalone.router.bl forwardServiceRegistration true
par SingleSatellite_Standalone.router.bl forwardProtocolRegistration true
par SingleSatellite_Standalone.router.li typename "\"inet.common.MessageDispatcher\""
par SingleSatellite_Standalone.router.li displayStringTextFormat "\"processed %p pk (%l)\""
par SingleSatellite_Standalone.router.li forwardServiceRegistration true
par SingleSatellite_Standalone.router.li forwardProtocolRegistration true
par SingleSatellite_Standalone.router.lo[0].upperLayerIn.channel typename "\"ned.IdealChannel\""
par SingleSatellite_Standalone.router.lo[0].lo.upperLayerOut.channel typename "\"ned.IdealChannel\""
par SingleSatellite_Standalone.router.lo[0].lo typename "\"inet.linklayer.loopback.Loopback\""
par SingleSatellite_Standalone.router.lo[0].lo interfaceTableModule "\"SingleSatellite_Standalone.router.interfaceTable\""
par SingleSatellite_Standalone.router.lo[0].lo mtu 4470B
attr unit B
scalar SingleSatellite_Standalone.router.lo[0].lo rcvdPkFromHl:count 0
attr interpolationmode none
attr recordingmode count
attr source packetReceivedFromUpper
attr title "packets received from higher layer, count"
scalar SingleSatellite_Standalone.router.lo[0].lo rcvdPkFromHl:sum(packetBytes) 0
attr interpolationmode none
attr recordingmode sum(packetBytes)
attr source packetReceivedFromUpper
attr title "packets received from higher layer, sum(packetBytes)"
scalar SingleSatellite_Standalone.router.lo[0].lo passedUpPk:count 0
attr interpolationmode none
attr recordingmode count
attr source packetSentToUpper
attr title "packets passed to higher layer, count"
scalar SingleSatellite_Standalone.router.lo[0].lo passedUpPk:sum(packetBytes) 0
attr interpolationmode none
attr recordingmode sum(packetBytes)
attr source packetSentToUpper
attr title "packets passed to higher layer, sum(packetBytes)"
par SingleSatellite_Standalone.router.lo[0] typename "\"inet.linklayer.loopback.LoopbackInterface\""
par SingleSatellite_Standalone.router.lo[0] displayStringTextFormat "\"%a (%i)\\n%m\""
par SingleSatellite_Standalone.router.lo[0] recordPcap false
par SingleSatellite_Standalone.router.lo[0] numPcapRecorders 0
par SingleSatellite_Standalone.router.lo[0] interfaceTableModule "\"SingleSatellite_Standalone.router.interfaceTable\""
scalar SingleSatellite_Standalone.router.lo[0] packetDropInterfaceDown:count 0
attr interpolationmode none
attr recordingmode count
attr source packetDropReasonIsInterfaceDown(packetDropped)
attr title "packet drops: interface down, count"
scalar SingleSatellite_Standalone.router.lo[0] packetDropInterfaceDown:sum(packetBytes) 0
attr interpolationmode none
attr recordingmode sum(packetBytes)
attr source packetDropReasonIsInterfaceDown(packetDropped)
attr title "packet drops: interface down, sum(packetBytes)"
scalar SingleSatellite_Standalone.router.lo[0] packetDropNoCarrier:count 0
attr interpolationmode none
attr recordingmode count
attr source packetDropReasonIsNoCarrier(packetDropped)
attr title "packet drops: no carrier, count"
scalar SingleSatellite_Standalone.router.lo[0] packetDropNoCarrier:sum(packetBytes) 0
attr interpolationmode none
attr recordingmode sum(packetBytes)
attr source packetDropReasonIsNoCarrier(packetDropped)
attr title "packet drops: no carrier, sum(packetBytes)"
par SingleSatellite_Standalone.router.ppp[0].phys$i.channel typename "\"ned.IdealChannel\""
par SingleSatellite_Standalone.router.ppp[0].ppp.phys$o.channel typename "\"ned.IdealChannel\""
par SingleSatellite_Standalone.router.ppp[0].ppp.upperLayerOut.channel typename "\"ned.IdealChannel\""
par SingleSatellite_Standalone.router.ppp[0].upperLayerIn.channel typename "\"ned.IdealChannel\""
par SingleSatellite_Standalone.router.ppp[0].queue typename "\"inet.queueing.queue.DropTailQueue\""
par SingleSatellite_Standalone.router.ppp[0].queue displayStringTextFormat "\"contains %p pk (%l) pushed %u\\npulled %o removed %r dropped %d\""
par SingleSatellite_Standalone.router.ppp[0].queue packetCapacity 10000
par SingleSatellite_Standalone.router.ppp[0].queue dataCapacity -1b
attr unit b
par SingleSatellite_Standalone.router.ppp[0].queue dropperClass "\"inet::queueing::PacketAtCollectionEndDropper\""
par SingleSatellite_Standalone.router.ppp[0].queue comparatorClass "\"\""
par SingleSatellite_Standalone.router.ppp[0].queue bufferModule "\"\""
scalar SingleSatellite_Standalone.router.ppp[0].queue queueLength:last 0
attr autoWarmupFilter false
attr interpolationmode sample-hold
attr recordingmode last
attr source "warmup(atomic(constant0(packetPushEnded) + count(packetPushStarted) - count(packetPulled) - count(packetRemoved) - count(packetDropped)))"
attr title "queue length, last"
attr unit pk
scalar SingleSatellite_Standalone.router.ppp[0].queue queueLength:max 0
attr autoWarmupFilter false
attr interpolationmode sample-hold
attr recordingmode max
attr source "warmup(atomic(constant0(packetPushEnded) + count(packetPushStarted) - count(packetPulled) - count(packetRemoved) - count(packetDropped)))"
attr title "queue length, max"
attr unit pk
scalar SingleSatellite_Standalone.router.ppp[0].queue queueLength:timeavg 0
attr autoWarmupFilter false
attr interpolationmode sample-hold
attr recordingmode timeavg
attr source "warmup(atomic(constant0(packetPushEnded) + count(packetPushStarted) - count(packetPulled) - count(packetRemoved) - count(packetDropped)))"
attr title "queue length, timeavg"
attr unit pk
scalar SingleSatellite_Standalone.router.ppp[0].queue queueBitLength:last 0
attr autoWarmupFilter false
attr interpolationmode sample-hold
attr recordingmode last
attr source "warmup(atomic(constant0(packetPushEnded) + sum(packetLength(packetPushStarted)) - sum(packetLength(packetPulled)) - sum(packetLength(packetRemoved)) - sum(packetLength(packetDropped))))"
attr title "queue bit length, last"
attr unit b
scalar SingleSatellite_Standalone.router.ppp[0].queue queueBitLength:max 0
attr autoWarmupFilter false
attr interpolationmode sample-hold
attr recordingmode max
attr source "warmup(atomic(constant0(packetPushEnded) + sum(packetLength(packetPushStarted)) - sum(packetLength(packetPulled)) - sum(packetLength(packetRemoved)) - sum(packetLength(packetDropped))))"
attr title "queue bit length, max"
attr unit b
scalar SingleSatellite_Standalone.router.ppp[0].queue queueBitLength:timeavg 0
attr autoWarmupFilter false
attr interpolationmode sample-hold
attr recordingmode timeavg
attr source "warmup(atomic(constant0(packetPushEnded) + sum(packetLength(packetPushStarted)) - sum(packetLength(packetPulled)) - sum(packetLength(packetRemoved)) - sum(packetLength(packetDropped))))"
attr title "queue bit length, timeavg"
attr unit b
statistic SingleSatellite_Standalone.router.ppp[0].queue queueingTime:histogram
field count 0
field mean nan
field stddev nan
field min nan
field max nan
field sum 0
field sqrsum 0
attr interpolationmode none
attr recordingmode histogram
attr source queueingTime(packetPulled)
attr title "queueing times"
attr unit s
bin	-inf	0
bin	0	0
bin	1	0
scalar SingleSatellite_Standalone.router.ppp[0].queue outgoingPackets:count 0
attr recordingmode count
attr source packetPulled
attr title "outgoing packets, count"
attr unit pk
scalar SingleSatellite_Standalone.router.ppp[0].queue outgoingPacketLengths:sum 0
attr interpolationmode none
attr recordingmode sum
attr source packetLength(packetPulled)
attr title "outgoing packet lengths, sum"
attr unit b
statistic SingleSatellite_Standalone.router.ppp[0].queue outgoingPacketLengths:histogram
field count 0
field mean nan
field stddev nan
field min nan
field max nan
field sum 0
field sqrsum 0
attr interpolationmode none
attr recordingmode histogram
attr source packetLength(packetPulled)
attr title "outgoing packet lengths"
attr unit b
bin	-inf	0
bin	0	0
bin	1	0
statistic SingleSatellite_Standalone.router.ppp[0].queue flowQueueingTime:histogram
field count 0
field mean nan
field stddev nan
field min nan
field max nan
field sum 0
field sqrsum 0
attr interpolationmode none
attr recordingmode histogram
attr source queueingTime(demuxFlow(packetPulled))
attr title "flow queueing times"
attr unit s
bin	-inf	0
bin	0	0
bin	1	0
scalar SingleSatellite_Standalone.router.ppp[0].queue incomingPackets:count 0
attr recordingmode count
attr source packetPushStarted
attr title "incoming packets, count"
attr unit pk
scalar SingleSatellite_Standalone.router.ppp[0].queue incomingPacketLengths:sum 0
attr interpolationmode none
attr recordingmode sum
attr source packetLength(packetPushStarted)
attr title "incoming packet lengths, sum"
attr unit b
statistic SingleSatellite_Standalone.router.ppp[0].queue incomingPacketLengths:histogram
field count 0
field mean nan
field stddev nan
field min nan
field max nan
field sum 0
field sqrsum 0
attr interpolationmode none
attr recordingmode histogram
attr source packetLength(packetPushStarted)
attr title "incoming packet lengths"
attr unit b
bin	-inf	0
bin	0	0
bin	1	0
scalar SingleSatellite_Standalone.router.ppp[0].queue droppedPacketsQueueOverflow:count 0
attr interpolationmode none
attr recordingmode count
attr source packetDropReasonIsQueueOverflow(packetDropped)
attr title "dropped packets: queue overflow, count"
attr unit pk
scalar SingleSatellite_Standalone.router.ppp[0].queue droppedPacketLengthsQueueOverflow:sum 0
attr interpolationmode none
attr recordingmode sum
attr source packetLength(packetDropReasonIsQueueOverflow(packetDropped))
attr title "dropped packet lengths: queue overflow, sum"
attr unit b
par SingleSatellite_Standalone.router.ppp[0].ppp typename "\"inet.linklayer.ppp.Ppp\""
par SingleSatellite_Standalone.router.ppp[0].ppp interfaceTableModule "\"SingleSatellite_Standalone.router.interfaceTable\""
par SingleSatellite_Standalone.router.ppp[0].ppp displayStringTextFormat "\"rate: %b\\nsent: %s, rcvd: %r\\nqueue: %q, drop: %d\""
par SingleSatellite_Standalone.router.ppp[0].ppp sendRawBytes false
par SingleSatellite_Standalone.router.ppp[0].ppp mtu 4470B
attr unit B
par SingleSatellite_Standalone.router.ppp[0].ppp stopOperationExtraTime -1s
attr unit s
par SingleSatellite_Standalone.router.ppp[0].ppp stopOperationTimeout 2s
attr unit s
scalar SingleSatellite_Standalone.router.ppp[0].ppp txPk:count 0
attr interpolationmode none
attr recordingmode count
attr source packetSentToLower
attr title "packets transmitted, count"
scalar SingleSatellite_Standalone.router.ppp[0].ppp txPk:sum(packetBytes) 0
attr interpolationmode none
attr recordingmode sum(packetBytes)
attr source packetSentToLower
attr title "packets transmitted, sum(packetBytes)"
scalar SingleSatellite_Standalone.router.ppp[0].ppp rcvdPkFromHl:count 0
attr interpolationmode none
attr recordingmode count
attr source packetReceivedFromUpper
attr title "packets received from higher layer, count"
scalar SingleSatellite_Standalone.router.ppp[0].ppp rcvdPkFromHl:sum(packetBytes) 0
attr interpolationmode none
attr recordingmode sum(packetBytes)
attr source packetReceivedFromUpper
attr title "packets received from higher layer, sum(packetBytes)"
scalar SingleSatellite_Standalone.router.ppp[0].ppp passedUpPk:count 0
attr interpolationmode none
attr recordingmode count
attr source packetSentToUpper
attr title "packets passed to higher layer, count"
scalar SingleSatellite_Standalone.router.ppp[0].ppp passedUpPk:sum(packetBytes) 0
attr interpolationmode none
attr recordingmode sum(packetBytes)
attr source packetSentToUpper
attr title "packets passed to higher layer, sum(packetBytes)"
scalar SingleSatellite_Standalone.router.ppp[0].ppp packetDropIncorrectlyReceived:count 0
attr interpolationmode none
attr recordingmode count
attr source packetDropReasonIsIncorrectlyReceived(packetDropped)
attr title "packet drop: incorrectly received, count"
scalar SingleSatellite_Standalone.router.ppp[0].ppp packetDropIncorrectlyReceived:sum(packetBytes) 0
attr interpolationmode none
attr recordingmode sum(packetBytes)
attr source packetDropReasonIsIncorrectlyReceived(packetDropped)
attr title "packet drop: incorrectly received, sum(packetBytes)"
scalar SingleSatellite_Standalone.router.ppp[0].ppp packetDropInterfaceDown:count 0
attr interpolationmode none
attr recordingmode count
attr source packetDropReasonIsInterfaceDown(packetDropped)
attr title "packet drop: interface down, count"
scalar SingleSatellite_Standalone.router.ppp[0].ppp packetDropInterfaceDown:sum(packetBytes) 0
attr interpolationmode none
attr recordingmode sum(packetBytes)
attr source packetDropReasonIsInterfaceDown(packetDropped)
attr title "packet drop: interface down, sum(packetBytes)"
scalar SingleSatellite_Standalone.router.ppp[0].ppp rxPkOk:count 0
attr interpolationmode none
attr recordingmode count
attr source rxPkOk
attr title "packets received OK, count"
scalar SingleSatellite_Standalone.router.ppp[0].ppp rxPkOk:sum(packetBytes) 0
attr interpolationmode none
attr recordingmode sum(packetBytes)
attr source rxPkOk
attr title "packets received OK, sum(packetBytes)"
scalar SingleSatellite_Standalone.router.ppp[0].ppp transmissionState:timeavg 0
attr interpolationmode sample-hold
attr recordingmode timeavg
attr source transmissionStateChanged
attr title "tx state, timeavg"
par SingleSatellite_Standalone.router.ppp[0] typename "\"inet.linklayer.ppp.PppInterface\""
par SingleSatellite_Standalone.router.ppp[0] displayStringTextFormat "\"%a (%i)\\n%m\""
par SingleSatellite_Standalone.router.ppp[0] recordPcap false
par SingleSatellite_Standalone.router.ppp[0] numPcapRecorders 0
par SingleSatellite_Standalone.router.ppp[0] interfaceTableModule "\"SingleSatellite_Standalone.router.interfaceTable\""
scalar SingleSatellite_Standalone.router.ppp[0] packetDropInterfaceDown:count 0
attr interpolationmode none
attr recordingmode count
attr source packetDropReasonIsInterfaceDown(packetDropped)
attr title "packet drops: interface down, count"
scalar SingleSatellite_Standalone.router.ppp[0] packetDropInterfaceDown:sum(packetBytes) 0
attr interpolationmode none
attr recordingmode sum(packetBytes)
attr source packetDropReasonIsInterfaceDown(packetDropped)
attr title "packet drops: interface down, sum(packetBytes)"
scalar SingleSatellite_Standalone.router.ppp[0] packetDropNoCarrier:count 0
attr interpolationmode none
attr recordingmode count
attr source packetDropReasonIsNoCarrier(packetDropped)
attr title "packet drops: no carrier, count"
scalar SingleSatellite_Standalone.router.ppp[0] packetDropNoCarrier:sum(packetBytes) 0
attr interpolationmode none
attr recordingmode sum(packetBytes)
attr source packetDropReasonIsNoCarrier(packetDropped)
attr title "packet drops: no carrier, sum(packetBytes)"
par SingleSatellite_Standalone.router.ppp[1].phys$i.channel typename "\"ned.IdealChannel\""
par SingleSatellite_Standalone.router.ppp[1].ppp.phys$o.channel typename "\"ned.IdealChannel\""
par SingleSatellite_Standalone.router.ppp[1].ppp.upperLayerOut.channel typename "\"ned.IdealChannel\""
par SingleSatellite_Standalone.router.ppp[1].upperLayerIn.channel typename "\"ned.IdealChannel\""
par SingleSatellite_Standalone.router.ppp[1].queue typename "\"inet.queueing.queue.DropTailQueue\""
par SingleSatellite_Standalone.router.ppp[1].queue displayStringTextFormat "\"contains %p pk (%l) pushed %u\\npulled %o removed %r dropped %d\""
par SingleSatellite_Standalone.router.ppp[1].queue packetCapacity 10000
par SingleSatellite_Standalone.router.ppp[1].queue dataCapacity -1b
attr unit b
par SingleSatellite_Standalone.router.ppp[1].queue dropperClass "\"inet::queueing::PacketAtCollectionEndDropper\""
par SingleSatellite_Standalone.router.ppp[1].queue comparatorClass "\"\""
par SingleSatellite_Standalone.router.ppp[1].queue bufferModule "\"\""
scalar SingleSatellite_Standalone.router.ppp[1].queue queueLength:last 0
attr autoWarmupFilter false
attr interpolationmode sample-hold
attr recordingmode last
attr source "warmup(atomic(constant0(packetPushEnded) + count(packetPushStarted) - count(packetPulled) - count(packetRemoved) - count(packetDropped)))"
attr title "queue length, last"
attr unit pk
scalar SingleSatellite_Standalone.router.ppp[1].queue queueLength:max 0
attr autoWarmupFilter false
attr interpolationmode sample-hold
attr recordingmode max
attr source "warmup(atomic(constant0(packetPushEnded) + count(packetPushStarted) - count(packetPulled) - count(packetRemoved) - count(packetDropped)))"
attr title "queue length, max"
attr unit pk
scalar SingleSatellite_Standalone.router.ppp[1].queue queueLength:timeavg 0
attr autoWarmupFilter false
attr interpolationmode sample-hold
attr recordingmode timeavg
attr source "warmup(atomic(constant0(packetPushEnded) + count(packetPushStarted) - count(packetPulled) - count(packetRemoved) - count(packetDropped)))"
attr title "queue length, timeavg"
attr unit pk
scalar SingleSatellite_Standalone.router.ppp[1].queue queueBitLength:last 0
attr autoWarmupFilter false
attr interpolationmode sample-hold
attr recordingmode last
attr source "warmup(atomic(constant0(packetPushEnded) + sum(packetLength(packetPushStarted)) - sum(packetLength(packetPulled)) - sum(packetLength(packetRemoved)) - sum(packetLength(packetDropped))))"
attr title "queue bit length, last"
attr unit b
scalar SingleSatellite_Standalone.router.ppp[1].queue queueBitLength:max 0
attr autoWarmupFilter false
attr interpolationmode sample-hold
attr recordingmode max
attr source "warmup(atomic(constant0(packetPushEnded) + sum(packetLength(packetPushStarted)) - sum(packetLength(packetPulled)) - sum(packetLength(packetRemoved)) - sum(packetLength(packetDropped))))"
attr title "queue bit length, max"
attr unit b
scalar SingleSatellite_Standalone.router.ppp[1].queue queueBitLength:timeavg 0
attr autoWarmupFilter false
attr interpolationmode sample-hold
attr recordingmode timeavg
attr source "warmup(atomic(constant0(packetPushEnded) + sum(packetLength(packetPushStarted)) - sum(packetLength(packetPulled)) - sum(packetLength(packetRemoved)) - sum(packetLength(packetDropped))))"
attr title "queue bit length, timeavg"
attr unit b
statistic SingleSatellite_Standalone.router.ppp[1].queue queueingTime:histogram
field count 0
field mean nan
field stddev nan
field min nan
field max nan
field sum 0
field sqrsum 0
attr interpolationmode none
attr recordingmode histogram
attr source queueingTime(packetPulled)
attr title "queueing times"
attr unit s
bin	-inf	0
bin	0	0
bin	1	0
scalar SingleSatellite_Standalone.router.ppp[1].queue outgoingPackets:count 0
attr recordingmode count
attr source packetPulled
attr title "outgoing packets, count"
attr unit pk
scalar SingleSatellite_Standalone.router.ppp[1].queue outgoingPacketLengths:sum 0
attr interpolationmode none
attr recordingmode sum
attr source packetLength(packetPulled)
attr title "outgoing packet lengths, sum"
attr unit b
statistic SingleSatellite_Standalone.router.ppp[1].queue outgoingPacketLengths:histogram
field count 0
field mean nan
field stddev nan
field min nan
field max nan
field sum 0
field sqrsum 0
attr interpolationmode none
attr recordingmode histogram
attr source packetLength(packetPulled)
attr title "outgoing packet lengths"
attr unit b
bin	-inf	0
bin	0	0
bin	1	0
statistic SingleSatellite_Standalone.router.ppp[1].queue flowQueueingTime:histogram
field count 0
field mean nan
field stddev nan
field min nan
field max nan
field sum 0
field sqrsum 0
attr interpolationmode none
attr recordingmode histogram
attr source queueingTime(demuxFlow(packetPulled))
attr title "flow queueing times"
attr unit s
bin	-inf	0
bin	0	0
bin	1	0
scalar SingleSatellite_Standalone.router.ppp[1].queue incomingPackets:count 0
attr recordingmode count
attr source packetPushStarted
attr title "incoming packets, count"
attr unit pk
scalar SingleSatellite_Standalone.router.ppp[1].queue incomingPacketLengths:sum 0
attr interpolationmode none
attr recordingmode sum
attr source packetLength(packetPushStarted)
attr title "incoming packet lengths, sum"
attr unit b
statistic SingleSatellite_Standalone.router.ppp[1].queue incomingPacketLengths:histogram
field count 0
field mean nan
field stddev nan
field min nan
field max nan
field sum 0
field sqrsum 0
attr interpolationmode none
attr recordingmode histogram
attr source packetLength(packetPushStarted)
attr title "incoming packet lengths"
attr unit b
bin	-inf	0
bin	0	0
bin	1	0
scalar SingleSatellite_Standalone.router.ppp[1].queue droppedPacketsQueueOverflow:count 0
attr interpolationmode none
attr recordingmode count
attr source packetDropReasonIsQueueOverflow(packetDropped)
attr title "dropped packets: queue overflow, count"
attr unit pk
scalar SingleSatellite_Standalone.router.ppp[1].queue droppedPacketLengthsQueueOverflow:sum 0
attr interpolationmode none
attr recordingmode sum
attr source packetLength(packetDropReasonIsQueueOverflow(packetDropped))
attr title "dropped packet lengths: queue overflow, sum"
attr unit b
par SingleSatellite_Standalone.router.ppp[1].ppp typename "\"inet.linklayer.ppp.Ppp\""
par SingleSatellite_Standalone.router.ppp[1].ppp interfaceTableModule "\"SingleSatellite_Standalone.router.interfaceTable\""
par SingleSatellite_Standalone.router.ppp[1].ppp displayStringTextFormat "\"rate: %b\\nsent: %s, rcvd: %r\\nqueue: %q, drop: %d\""
par SingleSatellite_Standalone.router.ppp[1].ppp sendRawBytes false
par SingleSatellite_Standalone.router.ppp[1].ppp mtu 4470B
attr unit B
par SingleSatellite_Standalone.router.ppp[1].ppp stopOperationExtraTime -1s
attr unit s
par SingleSatellite_Standalone.router.ppp[1].ppp stopOperationTimeout 2s
attr unit s
scalar SingleSatellite_Standalone.router.ppp[1].ppp txPk:count 0
attr interpolationmode none
attr recordingmode count
attr source packetSentToLower
attr title "packets transmitted, count"
scalar SingleSatellite_Standalone.router.ppp[1].ppp txPk:sum(packetBytes) 0
attr interpolationmode none
attr recordingmode sum(packetBytes)
attr source packetSentToLower
attr title "packets transmitted, sum(packetBytes)"
scalar SingleSatellite_Standalone.router.ppp[1].ppp rcvdPkFromHl:count 0
attr interpolationmode none
attr recordingmode count
attr source packetReceivedFromUpper
attr title "packets received from higher layer, count"
scalar SingleSatellite_Standalone.router.ppp[1].ppp rcvdPkFromHl:sum(packetBytes) 0
attr interpolationmode none
attr recordingmode sum(packetBytes)
attr source packetReceivedFromUpper
attr title "packets received from higher layer, sum(packetBytes)"
scalar SingleSatellite_Standalone.router.ppp[1].ppp passedUpPk:count 0
attr interpolationmode none
attr recordingmode count
attr source packetSentToUpper
attr title "packets passed to higher layer, count"
scalar SingleSatellite_Standalone.router.ppp[1].ppp passedUpPk:sum(packetBytes) 0
attr interpolationmode none
attr recordingmode sum(packetBytes)
attr source packetSentToUpper
attr title "packets passed to higher layer, sum(packetBytes)"
scalar SingleSatellite_Standalone.router.ppp[1].ppp packetDropIncorrectlyReceived:count 0
attr interpolationmode none
attr recordingmode count
attr source packetDropReasonIsIncorrectlyReceived(packetDropped)
attr title "packet drop: incorrectly received, count"
scalar SingleSatellite_Standalone.router.ppp[1].ppp packetDropIncorrectlyReceived:sum(packetBytes) 0
attr interpolationmode none
attr recordingmode sum(packetBytes)
attr source packetDropReasonIsIncorrectlyReceived(packetDropped)
attr title "packet drop: incorrectly received, sum(packetBytes)"
scalar SingleSatellite_Standalone.router.ppp[1].ppp packetDropInterfaceDown:count 0
attr interpolationmode none
attr recordingmode count
attr source packetDropReasonIsInterfaceDown(packetDropped)
attr title "packet drop: interface down, count"
scalar SingleSatellite_Standalone.router.ppp[1].ppp packetDropInterfaceDown:sum(packetBytes) 0
attr interpolationmode none
attr recordingmode sum(packetBytes)
attr source packetDropReasonIsInterfaceDown(packetDropped)
attr title "packet drop: interface down, sum(packetBytes)"
scalar SingleSatellite_Standalone.router.ppp[1].ppp rxPkOk:count 0
attr interpolationmode none
attr recordingmode count
attr source rxPkOk
attr title "packets received OK, count"
scalar SingleSatellite_Standalone.router.ppp[1].ppp rxPkOk:sum(packetBytes) 0
attr interpolationmode none
attr recordingmode sum(packetBytes)
attr source rxPkOk
attr title "packets received OK, sum(packetBytes)"
scalar SingleSatellite_Standalone.router.ppp[1].ppp transmissionState:timeavg 0
attr interpolationmode sample-hold
attr recordingmode timeavg
attr source transmissionStateChanged
attr title "tx state, timeavg"
par SingleSatellite_Standalone.router.ppp[1] typename "\"inet.linklayer.ppp.PppInterface\""
par SingleSatellite_Standalone.router.ppp[1] displayStringTextFormat "\"%a (%i)\\n%m\""
par SingleSatellite_Standalone.router.ppp[1] recordPcap false
par SingleSatellite_Standalone.router.ppp[1] numPcapRecorders 0
par SingleSatellite_Standalone.router.ppp[1] interfaceTableModule "\"SingleSatellite_Standalone.router.interfaceTable\""
scalar SingleSatellite_Standalone.router.ppp[1] packetDropInterfaceDown:count 0
attr interpolationmode none
attr recordingmode count
attr source packetDropReasonIsInterfaceDown(packetDropped)
attr title "packet drops: interface down, count"
scalar SingleSatellite_Standalone.router.ppp[1] packetDropInterfaceDown:sum(packetBytes) 0
attr interpolationmode none
attr recordingmode sum(packetBytes)
attr source packetDropReasonIsInterfaceDown(packetDropped)
attr title "packet drops: interface down, sum(packetBytes)"
scalar SingleSatellite_Standalone.router.ppp[1] packetDropNoCarrier:count 0
attr interpolationmode none
attr recordingmode count
attr source packetDropReasonIsNoCarrier(packetDropped)
attr title "packet drops: no carrier, count"
scalar SingleSatellite_Standalone.router.ppp[1] packetDropNoCarrier:sum(packetBytes) 0
attr interpolationmode none
attr recordingmode sum(packetBytes)
attr source packetDropReasonIsNoCarrier(packetDropped)
attr title "packet drops: no carrier, sum(packetBytes)"
par SingleSatellite_Standalone.router.ipv4.transportIn.channel typename "\"ned.IdealChannel\""
par SingleSatellite_Standalone.router.ipv4.up.out[0].channel typename "\"ned.IdealChannel\""
par SingleSatellite_Standalone.router.ipv4.lp.out[2].channel typename "\"ned.IdealChannel\""
par SingleSatellite_Standalone.router.ipv4.ifIn.channel typename "\"ned.IdealChannel\""
par SingleSatellite_Standalone.router.ipv4.configurator typename "\"inet.networklayer.configurator.ipv4.Ipv4NodeConfigurator\""
par SingleSatellite_Standalone.router.ipv4.configurator interfaceTableModule "\"SingleSatellite_Standalone.router.interfaceTable\""
par SingleSatellite_Standalone.router.ipv4.configurator routingTableModule "\"SingleSatellite_Standalone.router.ipv4.routingTable\""
par SingleSatellite_Standalone.router.ipv4.configurator networkConfiguratorModule "\"configurator\""
par SingleSatellite_Standalone.router.ipv4.configurator configureRoutingTable true
par SingleSatellite_Standalone.router.ipv4.routingTable typename "\"inet.networklayer.ipv4.Ipv4RoutingTable\""
par SingleSatellite_Standalone.router.ipv4.routingTable interfaceTableModule "\"SingleSatellite_Standalone.router.interfaceTable\""
par SingleSatellite_Standalone.router.ipv4.routingTable routerId "\"auto\""
par SingleSatellite_Standalone.router.ipv4.routingTable netmaskRoutes "\"*\""
par SingleSatellite_Standalone.router.ipv4.routingTable forwarding true
par SingleSatellite_Standalone.router.ipv4.routingTable multicastForwarding false
par SingleSatellite_Standalone.router.ipv4.routingTable useAdminDist false
par SingleSatellite_Standalone.router.ipv4.routingTable routingFile "\"\""
par SingleSatellite_Standalone.router.ipv4.natTable typename "\"inet.networklayer.ipv4.Ipv4NatTable\""
par SingleSatellite_Standalone.router.ipv4.natTable networkProtocolModule "\"^.ip\""
par SingleSatellite_Standalone.router.ipv4.natTable config "<config/> at content:1"
par SingleSatellite_Standalone.router.ipv4.up typename "\"inet.common.MessageDispatcher\""
par SingleSatellite_Standalone.router.ipv4.up displayStringTextFormat "\"processed %p pk (%l)\""
par SingleSatellite_Standalone.router.ipv4.up forwardServiceRegistration true
par SingleSatellite_Standalone.router.ipv4.up forwardProtocolRegistration true
par SingleSatellite_Standalone.router.ipv4.igmp typename "\"inet.networklayer.ipv4.Igmpv2\""
par SingleSatellite_Standalone.router.ipv4.igmp interfaceTableModule "\"SingleSatellite_Standalone.router.interfaceTable\""
par SingleSatellite_Standalone.router.ipv4.igmp routingTableModule "\"SingleSatellite_Standalone.router.ipv4.routingTable\""
par SingleSatellite_Standalone.router.ipv4.igmp crcMode "\"declared\""
attr enum declared,computed
par SingleSatellite_Standalone.router.ipv4.igmp enabled true
par SingleSatellite_Standalone.router.ipv4.igmp robustnessVariable 2
par SingleSatellite_Standalone.router.ipv4.igmp queryInterval 125s
attr unit s
par SingleSatellite_Standalone.router.ipv4.igmp queryResponseInterval 10s
attr unit s
par SingleSatellite_Standalone.router.ipv4.igmp groupMembershipInterval 260s
attr unit s
par SingleSatellite_Standalone.router.ipv4.igmp otherQuerierPresentInterval 255s
attr unit s
par SingleSatellite_Standalone.router.ipv4.igmp startupQueryInterval 31.25s
attr unit s
par SingleSatellite_Standalone.router.ipv4.igmp startupQueryCount 2
par SingleSatellite_Standalone.router.ipv4.igmp lastMemberQueryInterval 1s
attr unit s
par SingleSatellite_Standalone.router.ipv4.igmp lastMemberQueryCount 2
par SingleSatellite_Standalone.router.ipv4.igmp unsolicitedReportInterval 10s
attr unit s
par SingleSatellite_Standalone.router.ipv4.icmp typename "\"inet.networklayer.ipv4.Icmp\""
par SingleSatellite_Standalone.router.ipv4.icmp interfaceTableModule "\"SingleSatellite_Standalone.router.interfaceTable\""
par SingleSatellite_Standalone.router.ipv4.icmp routingTableModule "\"SingleSatellite_Standalone.router.ipv4.routingTable\""
par SingleSatellite_Standalone.router.ipv4.icmp crcMode "\"declared\""
attr enum declared,computed
attr mutable ""
par SingleSatellite_Standalone.router.ipv4.icmp quoteLength 8B
attr mutable ""
attr unit B
par SingleSatellite_Standalone.router.ipv4.mp typename "\"inet.common.MessageDispatcher\""
par SingleSatellite_Standalone.router.ipv4.mp displayStringTextFormat "\"processed %p pk (%l)\""
par SingleSatellite_Standalone.router.ipv4.mp forwardServiceRegistration true
par SingleSatellite_Standalone.router.ipv4.mp forwardProtocolRegistration true
par SingleSatellite_Standalone.router.ipv4.ip typename "\"inet.networklayer.ipv4.Ipv4\""
par SingleSatellite_Standalone.router.ipv4.ip interfaceTableModule "\"SingleSatellite_Standalone.router.interfaceTable\""
par SingleSatellite_Standalone.router.ipv4.ip routingTableModule "\"SingleSatellite_Standalone.router.ipv4.routingTable\""
par SingleSatellite_Standalone.router.ipv4.ip arpModule "\"SingleSatellite_Standalone.router.ipv4.arp\""
par SingleSatellite_Standalone.router.ipv4.ip icmpModule "\"SingleSatellite_Standalone.router.ipv4.icmp\""
par SingleSatellite_Standalone.router.ipv4.ip crcMode "\"declared\""
attr enum declared,computed
par SingleSatellite_Standalone.router.ipv4.ip timeToLive 32
par SingleSatellite_Standalone.router.ipv4.ip multicastTimeToLive 32
par SingleSatellite_Standalone.router.ipv4.ip fragmentTimeout 60s
attr unit s
par SingleSatellite_Standalone.router.ipv4.ip limitedBroadcast false
par SingleSatellite_Standalone.router.ipv4.ip directBroadcastInterfaces "\"\""
scalar SingleSatellite_Standalone.router.ipv4.ip packetDropAddressResolutionFailed:count 0
attr interpolationmode none
attr recordingmode count
attr source packetDropReasonIsAddressResolutionFailed(packetDropped)
attr title "packet drop: address resolution failed, count"
scalar SingleSatellite_Standalone.router.ipv4.ip packetDropAddressResolutionFailed:sum(packetBytes) 0
attr interpolationmode none
attr recordingmode sum(packetBytes)
attr source packetDropReasonIsAddressResolutionFailed(packetDropped)
attr title "packet drop: address resolution failed, sum(packetBytes)"
scalar SingleSatellite_Standalone.router.ipv4.ip packetDropHopLimitReached:count 0
attr interpolationmode none
attr recordingmode count
attr source packetDropReasonIsHopLimitReached(packetDropped)
attr title "packet drop: hop limit reached, count"
scalar SingleSatellite_Standalone.router.ipv4.ip packetDropHopLimitReached:sum(packetBytes) 0
attr interpolationmode none
attr recordingmode sum(packetBytes)
attr source packetDropReasonIsHopLimitReached(packetDropped)
attr title "packet drop: hop limit reached, sum(packetBytes)"
scalar SingleSatellite_Standalone.router.ipv4.ip packetDropForwardingDisabled:count 0
attr interpolationmode none
attr recordingmode count
attr source packetDropReasonIsForwardingDisabled(packetDropped)
attr title "packet drop: forwarding disabled, count"
scalar SingleSatellite_Standalone.router.ipv4.ip packetDropForwardingDisabled:sum(packetBytes) 0
attr interpolationmode none
attr recordingmode sum(packetBytes)
attr source packetDropReasonIsForwardingDisabled(packetDropped)
attr title "packet drop: forwarding disabled, sum(packetBytes)"
scalar SingleSatellite_Standalone.router.ipv4.ip packetDropNoInterfaceFound:count 0
attr interpolationmode none
attr recordingmode count
attr source packetDropReasonIsNoInterfaceFound(packetDropped)
attr title "packet drop: no interface found, count"
scalar SingleSatellite_Standalone.router.ipv4.ip packetDropNoInterfaceFound:sum(packetBytes) 0
attr interpolationmode none
attr recordingmode sum(packetBytes)
attr source packetDropReasonIsNoInterfaceFound(packetDropped)
attr title "packet drop: no interface found, sum(packetBytes)"
scalar SingleSatellite_Standalone.router.ipv4.ip packetDropNoRouteFound:count 0
attr interpolationmode none
attr recordingmode count
attr source packetDropReasonIsNoRouteFound(packetDropped)
attr title "packet drop: no route found, count"
scalar SingleSatellite_Standalone.router.ipv4.ip packetDropNoRouteFound:sum(packetBytes) 0
attr interpolationmode none
attr recordingmode sum(packetBytes)
attr source packetDropReasonIsNoRouteFound(packetDropped)
attr title "packet drop: no route found, sum(packetBytes)"
scalar SingleSatellite_Standalone.router.ipv4.ip packetDropUndefined:count 0
attr interpolationmode none
attr recordingmode count
attr source packetDropReasonIsUndefined(packetDropped)
attr title "packet drop: undefined, count"
scalar SingleSatellite_Standalone.router.ipv4.ip packetDropUndefined:sum(packetBytes) 0
attr interpolationmode none
attr recordingmode sum(packetBytes)
attr source packetDropReasonIsUndefined(packetDropped)
attr title "packet drop: undefined, sum(packetBytes)"
par SingleSatellite_Standalone.router.ipv4.arp typename "\"inet.networklayer.arp.ipv4.Arp\""
par SingleSatellite_Standalone.router.ipv4.arp interfaceTableModule "\"SingleSatellite_Standalone.router.interfaceTable\""
par SingleSatellite_Standalone.router.ipv4.arp routingTableModule "\"SingleSatellite_Standalone.router.ipv4.routingTable\""
par SingleSatellite_Standalone.router.ipv4.arp retryTimeout 1s
attr unit s
par SingleSatellite_Standalone.router.ipv4.arp retryCount 3
par SingleSatellite_Standalone.router.ipv4.arp cacheTimeout 120s
attr unit s
par SingleSatellite_Standalone.router.ipv4.arp proxyArpInterfaces "\"*\""
scalar SingleSatellite_Standalone.router.ipv4.arp arpReplySent:count 0
attr recordingmode count
attr source arpReplySent
attr title "ARP replies sent, count"
scalar SingleSatellite_Standalone.router.ipv4.arp arpReplySent:sum(packetBytes) 0
attr recordingmode sum(packetBytes)
attr source arpReplySent
attr title "ARP replies sent, sum(packetBytes)"
scalar SingleSatellite_Standalone.router.ipv4.arp arpRequestSent:count 0
attr recordingmode count
attr source arpRequestSent
attr title "ARP request sent, count"
scalar SingleSatellite_Standalone.router.ipv4.arp arpRequestSent:sum(packetBytes) 0
attr recordingmode sum(packetBytes)
attr source arpRequestSent
attr title "ARP request sent, sum(packetBytes)"
scalar SingleSatellite_Standalone.router.ipv4.arp arpResolutionFailed:count 0
attr recordingmode count
attr title "ARP failed resolutions, count"
scalar SingleSatellite_Standalone.router.ipv4.arp arpResolutionCompleted:count 0
attr recordingmode count
attr title "ARP completed resolutions, count"
scalar SingleSatellite_Standalone.router.ipv4.arp arpResolutionInitiated:count 0
attr recordingmode count
attr title "ARP initiated resolutions, count"
par SingleSatellite_Standalone.router.ipv4.lp typename "\"inet.common.MessageDispatcher\""
[...]
par SingleSatellite_Standalone.myHost.lo[0].lo interfaceTableModule "\"SingleSatellite_Standalone.myHost.interfaceTable\""
par SingleSatellite_Standalone.myHost.lo[0].lo mtu 4470B
attr unit B
scalar SingleSatellite_Standalone.myHost.lo[0].lo rcvdPkFromHl:count 0
attr interpolationmode none
attr recordingmode count
attr source packetReceivedFromUpper
attr title "packets received from higher layer, count"
scalar SingleSatellite_Standalone.myHost.lo[0].lo rcvdPkFromHl:sum(packetBytes) 0
attr interpolationmode none
attr recordingmode sum(packetBytes)
attr source packetReceivedFromUpper
attr title "packets received from higher layer, sum(packetBytes)"
scalar SingleSatellite_Standalone.myHost.lo[0].lo passedUpPk:count 0
attr interpolationmode none
attr recordingmode count
attr source packetSentToUpper
attr title "packets passed to higher layer, count"
scalar SingleSatellite_Standalone.myHost.lo[0].lo passedUpPk:sum(packetBytes) 0
attr interpolationmode none
attr recordingmode sum(packetBytes)
attr source packetSentToUpper
attr title "packets passed to higher layer, sum(packetBytes)"
par SingleSatellite_Standalone.myHost.lo[0] typename "\"inet.linklayer.loopback.LoopbackInterface\""
par SingleSatellite_Standalone.myHost.lo[0] displayStringTextFormat "\"%a (%i)\\n%m\""
par SingleSatellite_Standalone.myHost.lo[0] recordPcap false
par SingleSatellite_Standalone.myHost.lo[0] numPcapRecorders 0
par SingleSatellite_Standalone.myHost.lo[0] interfaceTableModule "\"SingleSatellite_Standalone.myHost.interfaceTable\""
scalar SingleSatellite_Standalone.myHost.lo[0] packetDropInterfaceDown:count 0
attr interpolationmode none
attr recordingmode count
attr source packetDropReasonIsInterfaceDown(packetDropped)
attr title "packet drops: interface down, count"
scalar SingleSatellite_Standalone.myHost.lo[0] packetDropInterfaceDown:sum(packetBytes) 0
attr interpolationmode none
attr recordingmode sum(packetBytes)
attr source packetDropReasonIsInterfaceDown(packetDropped)
attr title "packet drops: interface down, sum(packetBytes)"
scalar SingleSatellite_Standalone.myHost.lo[0] packetDropNoCarrier:count 0
attr interpolationmode none
attr recordingmode count
attr source packetDropReasonIsNoCarrier(packetDropped)
attr title "packet drops: no carrier, count"
scalar SingleSatellite_Standalone.myHost.lo[0] packetDropNoCarrier:sum(packetBytes) 0
attr interpolationmode none
attr recordingmode sum(packetBytes)
attr source packetDropReasonIsNoCarrier(packetDropped)
attr title "packet drops: no carrier, sum(packetBytes)"
par SingleSatellite_Standalone.myHost.ipv4.transportIn.channel typename "\"ned.IdealChannel\""
par SingleSatellite_Standalone.myHost.ipv4.up.out[0].channel typename "\"ned.IdealChannel\""
par SingleSatellite_Standalone.myHost.ipv4.lp.out[2].channel typename "\"ned.IdealChannel\""
par SingleSatellite_Standalone.myHost.ipv4.ifIn.channel typename "\"ned.IdealChannel\""
par SingleSatellite_Standalone.myHost.ipv4.configurator typename "\"inet.networklayer.configurator.ipv4.Ipv4NodeConfigurator\""
par SingleSatellite_Standalone.myHost.ipv4.configurator interfaceTableModule "\"SingleSatellite_Standalone.myHost.interfaceTable\""
par SingleSatellite_Standalone.myHost.ipv4.configurator routingTableModule "\"SingleSatellite_Standalone.myHost.ipv4.routingTable\""
par SingleSatellite_Standalone.myHost.ipv4.configurator networkConfiguratorModule "\"configurator\""
par SingleSatellite_Standalone.myHost.ipv4.configurator configureRoutingTable true
par SingleSatellite_Standalone.myHost.ipv4.routingTable typename "\"inet.networklayer.ipv4.Ipv4RoutingTable\""
par SingleSatellite_Standalone.myHost.ipv4.routingTable interfaceTableModule "\"SingleSatellite_Standalone.myHost.interfaceTable\""
par SingleSatellite_Standalone.myHost.ipv4.routingTable routerId "\"auto\""
par SingleSatellite_Standalone.myHost.ipv4.routingTable netmaskRoutes "\"*\""
par SingleSatellite_Standalone.myHost.ipv4.routingTable forwarding false
par SingleSatellite_Standalone.myHost.ipv4.routingTable multicastForwarding false
par SingleSatellite_Standalone.myHost.ipv4.routingTable useAdminDist false
par SingleSatellite_Standalone.myHost.ipv4.routingTable routingFile "\"\""
par SingleSatellite_Standalone.myHost.ipv4.natTable typename "\"inet.networklayer.ipv4.Ipv4NatTable\""
par SingleSatellite_Standalone.myHost.ipv4.natTable networkProtocolModule "\"^.ip\""
par SingleSatellite_Standalone.myHost.ipv4.natTable config "<config/> at content:1"
par SingleSatellite_Standalone.myHost.ipv4.up typename "\"inet.common.MessageDispatcher\""
par SingleSatellite_Standalone.myHost.ipv4.up displayStringTextFormat "\"processed %p pk (%l)\""
par SingleSatellite_Standalone.myHost.ipv4.up forwardServiceRegistration true
par SingleSatellite_Standalone.myHost.ipv4.up forwardProtocolRegistration true
par SingleSatellite_Standalone.myHost.ipv4.igmp typename "\"inet.networklayer.ipv4.Igmpv2\""
par SingleSatellite_Standalone.myHost.ipv4.igmp interfaceTableModule "\"SingleSatellite_Standalone.myHost.interfaceTable\""
par SingleSatellite_Standalone.myHost.ipv4.igmp routingTableModule "\"SingleSatellite_Standalone.myHost.ipv4.routingTable\""
par SingleSatellite_Standalone.myHost.ipv4.igmp crcMode "\"declared\""
attr enum declared,computed
par SingleSatellite_Standalone.myHost.ipv4.igmp enabled true
par SingleSatellite_Standalone.myHost.ipv4.igmp robustnessVariable 2
par SingleSatellite_Standalone.myHost.ipv4.igmp queryInterval 125s
attr unit s
par SingleSatellite_Standalone.myHost.ipv4.igmp queryResponseInterval 10s
attr unit s
par SingleSatellite_Standalone.myHost.ipv4.igmp groupMembershipInterval 260s
attr unit s
par SingleSatellite_Standalone.myHost.ipv4.igmp otherQuerierPresentInterval 255s
attr unit s
par SingleSatellite_Standalone.myHost.ipv4.igmp startupQueryInterval 31.25s
attr unit s
par SingleSatellite_Standalone.myHost.ipv4.igmp startupQueryCount 2
par SingleSatellite_Standalone.myHost.ipv4.igmp lastMemberQueryInterval 1s
attr unit s
par SingleSatellite_Standalone.myHost.ipv4.igmp lastMemberQueryCount 2
par SingleSatellite_Standalone.myHost.ipv4.igmp unsolicitedReportInterval 10s
attr unit s
par SingleSatellite_Standalone.myHost.ipv4.icmp typename "\"inet.networklayer.ipv4.Icmp\""
par SingleSatellite_Standalone.myHost.ipv4.icmp interfaceTableModule "\"SingleSatellite_Standalone.myHost.interfaceTable\""
par SingleSatellite_Standalone.myHost.ipv4.icmp routingTableModule "\"SingleSatellite_Standalone.myHost.ipv4.routingTable\""
par SingleSatellite_Standalone.myHost.ipv4.icmp crcMode "\"declared\""
attr enum declared,computed
attr mutable ""
par SingleSatellite_Standalone.myHost.ipv4.icmp quoteLength 8B
attr mutable ""
attr unit B
par SingleSatellite_Standalone.myHost.ipv4.mp typename "\"inet.common.MessageDispatcher\""
par SingleSatellite_Standalone.myHost.ipv4.mp displayStringTextFormat "\"processed %p pk (%l)\""
par SingleSatellite_Standalone.myHost.ipv4.mp forwardServiceRegistration true
par SingleSatellite_Standalone.myHost.ipv4.mp forwardProtocolRegistration true
par SingleSatellite_Standalone.myHost.ipv4.ip typename "\"inet.networklayer.ipv4.Ipv4\""
par SingleSatellite_Standalone.myHost.ipv4.ip interfaceTableModule "\"SingleSatellite_Standalone.myHost.interfaceTable\""
par SingleSatellite_Standalone.myHost.ipv4.ip routingTableModule "\"SingleSatellite_Standalone.myHost.ipv4.routingTable\""
par SingleSatellite_Standalone.myHost.ipv4.ip arpModule "\"SingleSatellite_Standalone.myHost.ipv4.arp\""
par SingleSatellite_Standalone.myHost.ipv4.ip icmpModule "\"SingleSatellite_Standalone.myHost.ipv4.icmp\""
par SingleSatellite_Standalone.myHost.ipv4.ip crcMode "\"declared\""
attr enum declared,computed
par SingleSatellite_Standalone.myHost.ipv4.ip timeToLive 32
par SingleSatellite_Standalone.myHost.ipv4.ip multicastTimeToLive 32
par SingleSatellite_Standalone.myHost.ipv4.ip fragmentTimeout 60s
attr unit s
par SingleSatellite_Standalone.myHost.ipv4.ip limitedBroadcast false
par SingleSatellite_Standalone.myHost.ipv4.ip directBroadcastInterfaces "\"\""
scalar SingleSatellite_Standalone.myHost.ipv4.ip packetDropAddressResolutionFailed:count 0
attr interpolationmode none
attr recordingmode count
attr source packetDropReasonIsAddressResolutionFailed(packetDropped)
attr title "packet drop: address resolution failed, count"
scalar SingleSatellite_Standalone.myHost.ipv4.ip packetDropAddressResolutionFailed:sum(packetBytes) 0
attr interpolationmode none
attr recordingmode sum(packetBytes)
attr source packetDropReasonIsAddressResolutionFailed(packetDropped)
attr title "packet drop: address resolution failed, sum(packetBytes)"
scalar SingleSatellite_Standalone.myHost.ipv4.ip packetDropHopLimitReached:count 0
attr interpolationmode none
attr recordingmode count
attr source packetDropReasonIsHopLimitReached(packetDropped)
attr title "packet drop: hop limit reached, count"
scalar SingleSatellite_Standalone.myHost.ipv4.ip packetDropHopLimitReached:sum(packetBytes) 0
attr interpolationmode none
attr recordingmode sum(packetBytes)
attr source packetDropReasonIsHopLimitReached(packetDropped)
attr title "packet drop: hop limit reached, sum(packetBytes)"
scalar SingleSatellite_Standalone.myHost.ipv4.ip packetDropForwardingDisabled:count 0
attr interpolationmode none
attr recordingmode count
attr source packetDropReasonIsForwardingDisabled(packetDropped)
attr title "packet drop: forwarding disabled, count"
scalar SingleSatellite_Standalone.myHost.ipv4.ip packetDropForwardingDisabled:sum(packetBytes) 0
attr interpolationmode none
attr recordingmode sum(packetBytes)
attr source packetDropReasonIsForwardingDisabled(packetDropped)
attr title "packet drop: forwarding disabled, sum(packetBytes)"
scalar SingleSatellite_Standalone.myHost.ipv4.ip packetDropNoInterfaceFound:count 0
attr interpolationmode none
attr recordingmode count
attr source packetDropReasonIsNoInterfaceFound(packetDropped)
attr title "packet drop: no interface found, count"
scalar SingleSatellite_Standalone.myHost.ipv4.ip packetDropNoInterfaceFound:sum(packetBytes) 0
attr interpolationmode none
attr recordingmode sum(packetBytes)
attr source packetDropReasonIsNoInterfaceFound(packetDropped)
attr title "packet drop: no interface found, sum(packetBytes)"
scalar SingleSatellite_Standalone.myHost.ipv4.ip packetDropNoRouteFound:count 0
attr interpolationmode none
attr recordingmode count
attr source packetDropReasonIsNoRouteFound(packetDropped)
attr title "packet drop: no route found, count"
scalar SingleSatellite_Standalone.myHost.ipv4.ip packetDropNoRouteFound:sum(packetBytes) 0
attr interpolationmode none
attr recordingmode sum(packetBytes)
attr source packetDropReasonIsNoRouteFound(packetDropped)
attr title "packet drop: no route found, sum(packetBytes)"
scalar SingleSatellite_Standalone.myHost.ipv4.ip packetDropUndefined:count 0
attr interpolationmode none
attr recordingmode count
attr source packetDropReasonIsUndefined(packetDropped)
attr title "packet drop: undefined, count"
scalar SingleSatellite_Standalone.myHost.ipv4.ip packetDropUndefined:sum(packetBytes) 0
attr interpolationmode none
attr recordingmode sum(packetBytes)
attr source packetDropReasonIsUndefined(packetDropped)
attr title "packet drop: undefined, sum(packetBytes)"
par SingleSatellite_Standalone.myHost.ipv4.arp typename "\"inet.networklayer.arp.ipv4.Arp\""
par SingleSatellite_Standalone.myHost.ipv4.arp interfaceTableModule "\"SingleSatellite_Standalone.myHost.interfaceTable\""
par SingleSatellite_Standalone.myHost.ipv4.arp routingTableModule "\"SingleSatellite_Standalone.myHost.ipv4.routingTable\""
par SingleSatellite_Standalone.myHost.ipv4.arp retryTimeout 1s
attr unit s
par SingleSatellite_Standalone.myHost.ipv4.arp retryCount 3
par SingleSatellite_Standalone.myHost.ipv4.arp cacheTimeout 120s
attr unit s
par SingleSatellite_Standalone.myHost.ipv4.arp proxyArpInterfaces "\"\""
scalar SingleSatellite_Standalone.myHost.ipv4.arp arpReplySent:count 0
attr recordingmode count
attr source arpReplySent
attr title "ARP replies sent, count"
scalar SingleSatellite_Standalone.myHost.ipv4.arp arpReplySent:sum(packetBytes) 0
attr recordingmode sum(packetBytes)
attr source arpReplySent
attr title "ARP replies sent, sum(packetBytes)"
scalar SingleSatellite_Standalone.myHost.ipv4.arp arpRequestSent:count 0
attr recordingmode count
attr source arpRequestSent
attr title "ARP request sent, count"
scalar SingleSatellite_Standalone.myHost.ipv4.arp arpRequestSent:sum(packetBytes) 0
attr recordingmode sum(packetBytes)
attr source arpRequestSent
attr title "ARP request sent, sum(packetBytes)"
scalar SingleSatellite_Standalone.myHost.ipv4.arp arpResolutionFailed:count 0
attr recordingmode count
attr title "ARP failed resolutions, count"
scalar SingleSatellite_Standalone.myHost.ipv4.arp arpResolutionCompleted:count 0
attr recordingmode count
attr title "ARP completed resolutions, count"
scalar SingleSatellite_Standalone.myHost.ipv4.arp arpResolutionInitiated:count 0
attr recordingmode count
attr title "ARP initiated resolutions, count"
par SingleSatellite_Standalone.myHost.ipv4.lp typename "\"inet.common.MessageDispatcher\""
par SingleSatellite_Standalone.myHost.ipv4.lp displayStringTextFormat "\"processed %p pk (%l)\""
par SingleSatellite_Standalone.myHost.ipv4.lp forwardServiceRegistration true
par SingleSatellite_Standalone.myHost.ipv4.lp forwardProtocolRegistration true
par SingleSatellite_Standalone.myHost.ipv4 typename "\"inet.networklayer.ipv4.Ipv4NetworkLayer\""
par SingleSatellite_Standalone.myHost.ipv4 forwarding false
par SingleSatellite_Standalone.myHost.ipv4 multicastForwarding false
par SingleSatellite_Standalone.myHost.ipv4 interfaceTableModule "\"SingleSatellite_Standalone.myHost.interfaceTable\""
par SingleSatellite_Standalone.myHost.ipv4 displayStringTextFormat "\"%i\""
par SingleSatellite_Standalone.myHost.nl typename "\"inet.common.MessageDispatcher\""
par SingleSatellite_Standalone.myHost.nl displayStringTextFormat "\"processed %p pk (%l)\""
par SingleSatellite_Standalone.myHost.nl forwardServiceRegistration true
par SingleSatellite_Standalone.myHost.nl forwardProtocolRegistration true
par SingleSatellite_Standalone.myHost.udp typename "\"inet.transportlayer.udp.Udp\""
par SingleSatellite_Standalone.myHost.udp interfaceTableModule "\"SingleSatellite_Standalone.myHost.interfaceTable\""
par SingleSatellite_Standalone.myHost.udp icmpModule "\"^.ipv4.icmp\""
par SingleSatellite_Standalone.myHost.udp icmpv6Module "\"^.ipv6.icmpv6\""
par SingleSatellite_Standalone.myHost.udp crcMode "\"declared\""
attr enum disabled,declared,computed
par SingleSatellite_Standalone.myHost.udp defaultMulticastLoop true
scalar SingleSatellite_Standalone.myHost.udp packetReceived:count 0
attr interpolationmode none
attr recordingmode count
attr source packetReceived
attr title "packets received, count"
scalar SingleSatellite_Standalone.myHost.udp packetReceived:sum(packetBytes) 0
attr interpolationmode none
attr recordingmode sum(packetBytes)
attr source packetReceived
attr title "packets received, sum(packetBytes)"
scalar SingleSatellite_Standalone.myHost.udp packetSent:count 0
attr interpolationmode none
attr recordingmode count
attr source packetSent
attr title "packets sent, count"
scalar SingleSatellite_Standalone.myHost.udp packetSent:sum(packetBytes) 0
attr interpolationmode none
attr recordingmode sum(packetBytes)
attr source packetSent
attr title "packets sent, sum(packetBytes)"
scalar SingleSatellite_Standalone.myHost.udp passedUpPk:count 0
attr interpolationmode none
attr recordingmode count
attr source packetSentToUpper
attr title "packets passed up, count"
scalar SingleSatellite_Standalone.myHost.udp droppedPkWrongPort:count 0
attr interpolationmode none
attr recordingmode count
attr source packetDropReasonIsNoPortFound(packetDropped)
attr title "packets dropped (wrong port), count"
scalar SingleSatellite_Standalone.myHost.udp droppedPkBadChecksum:count 0
attr interpolationmode none
attr recordingmode count
attr source packetDropReasonIsIncorrectlyReceived(packetDropped)
attr title "packets dropped (checksum error), count"
par SingleSatellite_Standalone.myHost.tcp typename "\"inet.transportlayer.tcp.Tcp\""
par SingleSatellite_Standalone.myHost.tcp crcMode "\"declared\""
attr enum declared,computed
par SingleSatellite_Standalone.myHost.tcp advertisedWindow 7504
par SingleSatellite_Standalone.myHost.tcp delayedAcksEnabled false
par SingleSatellite_Standalone.myHost.tcp nagleEnabled true
par SingleSatellite_Standalone.myHost.tcp limitedTransmitEnabled false
par SingleSatellite_Standalone.myHost.tcp increasedIWEnabled false
par SingleSatellite_Standalone.myHost.tcp sackSupport false
par SingleSatellite_Standalone.myHost.tcp windowScalingSupport false
par SingleSatellite_Standalone.myHost.tcp windowScalingFactor -1
par SingleSatellite_Standalone.myHost.tcp timestampSupport false
par SingleSatellite_Standalone.myHost.tcp mss 536
par SingleSatellite_Standalone.myHost.tcp msl 120s
attr unit s
par SingleSatellite_Standalone.myHost.tcp tcpAlgorithmClass "\"TcpReno\""
attr enum TcpVegas,TcpWestwood,TcpNewReno,TcpReno,TcpTahoe,TcpNoCongestionControl
par SingleSatellite_Standalone.myHost.tcp useDataNotification false
par SingleSatellite_Standalone.myHost.tcp dupthresh 3
par SingleSatellite_Standalone.myHost.tcp initialSsthresh 4294967295
par SingleSatellite_Standalone.myHost.tcp stopOperationExtraTime 0s
attr unit s
par SingleSatellite_Standalone.myHost.tcp stopOperationTimeout 2s
attr unit s
par SingleSatellite_Standalone.myHost.tcp ecnWillingness false
par SingleSatellite_Standalone.myHost.tcp dctcpGamma 0.0625
par SingleSatellite_Standalone.myHost.tn typename "\"inet.common.MessageDispatcher\""
par SingleSatellite_Standalone.myHost.tn displayStringTextFormat "\"processed %p pk (%l)\""
par SingleSatellite_Standalone.myHost.tn forwardServiceRegistration true
par SingleSatellite_Standalone.myHost.tn forwardProtocolRegistration true
par SingleSatellite_Standalone.myHost.at typename "\"inet.common.MessageDispatcher\""
par SingleSatellite_Standalone.myHost.at displayStringTextFormat "\"processed %p pk (%l)\""
par SingleSatellite_Standalone.myHost.at forwardServiceRegistration true
par SingleSatellite_Standalone.myHost.at forwardProtocolRegistration true
par SingleSatellite_Standalone.myHost.iPv4HookInfo typename "\"inet.networklayer.common.NetfilterInfoHook\""
par SingleSatellite_Standalone.myHost.iPv4HookInfo networkProtocolModule "\"^.ipv4.ip\""
par SingleSatellite_Standalone.myHost typename "\"inet.examples.inet.ipv4hook.MyHost\""
par SingleSatellite_Standalone.myHost hasStatus false
par SingleSatellite_Standalone.myHost osgModel "\"\""
par SingleSatellite_Standalone.myHost osgModelColor "\"\""
par SingleSatellite_Standalone.myHost canvasImage "\"\""
par SingleSatellite_Standalone.myHost canvasImageColor "\"\""
par SingleSatellite_Standalone.myHost recordPcap false
par SingleSatellite_Standalone.myHost numPcapRecorders 0
par SingleSatellite_Standalone.myHost numLoInterfaces 1
par SingleSatellite_Standalone.myHost numWlanInterfaces 0
par SingleSatellite_Standalone.myHost numEthInterfaces 0
par SingleSatellite_Standalone.myHost numPppInterfaces 0
par SingleSatellite_Standalone.myHost numTunInterfaces 0
par SingleSatellite_Standalone.myHost numVirtInterfaces 0
par SingleSatellite_Standalone.myHost fcsMode "\"declared\""
attr enum declared,computed
par SingleSatellite_Standalone.myHost hasIpv4 true
par SingleSatellite_Standalone.myHost hasIpv6 false
par SingleSatellite_Standalone.myHost hasGn false
par SingleSatellite_Standalone.myHost forwarding false
par SingleSatellite_Standalone.myHost multicastForwarding false
par SingleSatellite_Standalone.myHost hasUdp true
par SingleSatellite_Standalone.myHost hasTcp true
par SingleSatellite_Standalone.myHost hasSctp false
par SingleSatellite_Standalone.myHost numApps 0
par SingleSatellite_Standalone typename "\"simu5g.simulations.SatCom.networks.SingleSatellite_Standalone\""
par SingleSatellite_Standalone numUe 1
par SingleSatellite_Standalone numBgCells 0

