version 3
run CBR-DL-0-20241009-21:19:16-26308
attr configname CBR-DL
attr datetime 20241009-21:19:16
attr datetimef 20241009-211916
attr experiment CBR-DL
attr inifile omnetpp.ini
attr iterationvars "$u=0, $numRbs=50, $numUEs=1"
attr iterationvarsd u=0/numRbs=50/numUEs=1
attr iterationvarsf u=0,numRbs=50,numUEs=1-
attr measurement "$u=0, $numRbs=50, $numUEs=1"
attr network simu5g.simulations.SatCom.networks.MultiSatellite_Standalone
attr processid 26308
attr repetition 0
attr replication #0
attr resultdir results
attr runnumber 0
attr seedset 0
itervar numRbs 50
itervar numUEs 1
itervar u 0
config image-path ../../../images;../../../../inet4.5/images
config extends MultiCell
config description "CBR DL traffic from remote server to UEs"
config *.ue[*].numApps 1
config *.server.numApps 1
config *.ue[*].app[*].typename CbrReceiver
config *.ue[*].app[*].localPort 3000
config *.server.app[*].typename CbrSender
config *.server.app[*].PacketSize 100
config *.server.app[*].sampling_time 0.02s
config *.server.app[*].destAddress "\"ue[\" + string(ancestorIndex(0)) + \"]\""
config *.server.app[*].destPort 3000
config *.server.app[*].localPort 3088+ancestorIndex(0)
config *.server.app[*].startTime uniform(0s,0.02s)
config *.server.app[*].finishTime 40s
config *.ue[*].cellularNic.rrc.debug true
config *.gnbSat*.cellularNic.rrc.debug true
config *.ue[*].cellularNic.nrPhy.debug true
config *.gnbSat*.cellularNic.nrPhy.debug true
config *.binder.debug true
config *.configurator.verbose true
config network simu5g.simulations.SatCom.networks.MultiSatellite_Standalone
config sim-time-limit 40s
config description "Base configuration, do not run this config!"
config **.mobility.constraintAreaMaxX 2000m
config **.mobility.constraintAreaMaxY 1750m
config **.mobility.constraintAreaMinX 0m
config **.mobility.constraintAreaMinY 250m
config **.mobility.constraintAreaMinZ 0m
config **.mobility.constraintAreaMaxZ 0m
config **.mobility.initFromDisplayString false
config *.carrierAggregation.numComponentCarriers 1
config *.carrierAggregation.componentCarrier[0].numerologyIndex 0
config *.carrierAggregation.componentCarrier[0].carrierFrequency 2GHz
config *.carrierAggregation.componentCarrier[0].numBands 50
config *.gnbSat*.cellularNic.numCarriers 1
config *.gnbSat*.cellularNic.channelModel[0].componentCarrierIndex 0
config *.ue[*].cellularNic.numCarriers 1
config *.gnbSat1.mobility.initialX 50m
config *.gnbSat1.mobility.initialY 350m
config *.gnbSat2.mobility.initialX 500m
config *.gnbSat2.mobility.initialY 350m
config *.gnbSat1.mobility.typename LinearMobility
config *.gnbSat1.mobility.initialX 50m
config *.gnbSat1.mobility.initialY 550m
config *.gnbSat1.mobility.speed 15mps
config *.gnbSat1.mobility.initialMovementHeading 0deg
config *.gnbSat2.mobility.typename LinearMobility
config *.gnbSat2.mobility.initialX 50m
config *.gnbSat2.mobility.initialY 550m
config *.gnbSat2.mobility.speed 15mps
config *.gnbSat2.mobility.initialMovementHeading 0deg
config *.gnbSat*.numX2Apps 1
config *.gnbSat*.x2App[*].server.localPort "5000 + ancestorIndex(1)"
config *.gnbSat1.x2App[0].client.connectAddress "\"gnbSat2%x2ppp0\""
config *.gnbSat2.x2App[0].client.connectAddress "\"gnbSat1%x2ppp0\""
config *.numUe 1
config *.ue[*].macCellId 0
config *.ue[*].masterId 0
config *.ue[*].nrMacCellId 1
config *.ue[*].nrMasterId 1
config **.dynamicCellAssociation true
config **.enableHandover true
config *.ue[0].mobility.initialX 450m
config *.ue[0].mobility.initialY 350m
config image-path ../../../images
config output-scalar-file-append false
config **.routingRecorder.enabled false
config output-scalar-file "results/CBR-DL/$u=0, $numRbs=50, $numUEs=1-0.sca"
config output-vector-file "results/CBR-DL/$u=0, $numRbs=50, $numUEs=1-0.vec"
config seed-set 0
config **.sctp.**.scalar-recording false
config **.sctp.**.vector-recording false
config **.vector-recording true
config **.sctp.nagleEnabled false
config **.sctp.enableHeartbeats false
config **.downlink_interference true
config **.uplink_interference true
config **.ueTxPower 1
config **.eNodeBTxPower 2
config **.targetBler 0.01
config **.blerShift 5
config **.fbPeriod 40
config *.configurator.config "xmldoc(\"./demo.xml\")"

scalar MultiSatellite_Standalone.gnbSat1.x2App[0].client ums 1452
scalar MultiSatellite_Standalone.gnbSat2.x2App[0].client ums 1452
par MultiSatellite_Standalone.server.pppg$o[0].channel typename "\"inet.node.ethernet.Eth10G\""
par MultiSatellite_Standalone.server.pppg$o[0].channel disabled false
attr mutable ""
par MultiSatellite_Standalone.server.pppg$o[0].channel delay 5e-08s
attr mutable ""
attr unit s
par MultiSatellite_Standalone.server.pppg$o[0].channel datarate 1e+10bps
attr mutable ""
attr unit bps
par MultiSatellite_Standalone.server.pppg$o[0].channel ber 0
attr mutable ""
par MultiSatellite_Standalone.server.pppg$o[0].channel per 0
attr mutable ""
par MultiSatellite_Standalone.server.pppg$o[0].channel length 10m
attr unit m
par MultiSatellite_Standalone.router.pppg$o[0].channel typename "\"inet.node.ethernet.Eth10G\""
par MultiSatellite_Standalone.router.pppg$o[0].channel disabled false
attr mutable ""
par MultiSatellite_Standalone.router.pppg$o[0].channel delay 5e-08s
attr mutable ""
attr unit s
par MultiSatellite_Standalone.router.pppg$o[0].channel datarate 1e+10bps
attr mutable ""
attr unit bps
par MultiSatellite_Standalone.router.pppg$o[0].channel ber 0
attr mutable ""
par MultiSatellite_Standalone.router.pppg$o[0].channel per 0
attr mutable ""
par MultiSatellite_Standalone.router.pppg$o[0].channel length 10m
attr unit m
par MultiSatellite_Standalone.router.pppg$o[1].channel typename "\"inet.node.ethernet.Eth10G\""
par MultiSatellite_Standalone.router.pppg$o[1].channel disabled false
attr mutable ""
par MultiSatellite_Standalone.router.pppg$o[1].channel delay 5e-08s
attr mutable ""
attr unit s
par MultiSatellite_Standalone.router.pppg$o[1].channel datarate 1e+10bps
attr mutable ""
attr unit bps
par MultiSatellite_Standalone.router.pppg$o[1].channel ber 0
attr mutable ""
par MultiSatellite_Standalone.router.pppg$o[1].channel per 0
attr mutable ""
par MultiSatellite_Standalone.router.pppg$o[1].channel length 10m
attr unit m
par MultiSatellite_Standalone.upf.filterGate$o.channel typename "\"inet.node.ethernet.Eth10G\""
par MultiSatellite_Standalone.upf.filterGate$o.channel disabled false
attr mutable ""
par MultiSatellite_Standalone.upf.filterGate$o.channel delay 5e-08s
attr mutable ""
attr unit s
par MultiSatellite_Standalone.upf.filterGate$o.channel datarate 1e+10bps
attr mutable ""
attr unit bps
par MultiSatellite_Standalone.upf.filterGate$o.channel ber 0
attr mutable ""
par MultiSatellite_Standalone.upf.filterGate$o.channel per 0
attr mutable ""
par MultiSatellite_Standalone.upf.filterGate$o.channel length 10m
attr unit m
par MultiSatellite_Standalone.upf.pppg$o[0].channel typename "\"inet.node.ethernet.Eth10G\""
par MultiSatellite_Standalone.upf.pppg$o[0].channel disabled false
attr mutable ""
par MultiSatellite_Standalone.upf.pppg$o[0].channel delay 5e-08s
attr mutable ""
attr unit s
par MultiSatellite_Standalone.upf.pppg$o[0].channel datarate 1e+10bps
attr mutable ""
attr unit bps
par MultiSatellite_Standalone.upf.pppg$o[0].channel ber 0
attr mutable ""
par MultiSatellite_Standalone.upf.pppg$o[0].channel per 0
attr mutable ""
par MultiSatellite_Standalone.upf.pppg$o[0].channel length 10m
attr unit m
par MultiSatellite_Standalone.iUpf.pppg$o[0].channel typename "\"inet.node.ethernet.Eth10G\""
par MultiSatellite_Standalone.iUpf.pppg$o[0].channel disabled false
attr mutable ""
par MultiSatellite_Standalone.iUpf.pppg$o[0].channel delay 5e-08s
attr mutable ""
attr unit s
par MultiSatellite_Standalone.iUpf.pppg$o[0].channel datarate 1e+10bps
attr mutable ""
attr unit bps
par MultiSatellite_Standalone.iUpf.pppg$o[0].channel ber 0
attr mutable ""
par MultiSatellite_Standalone.iUpf.pppg$o[0].channel per 0
attr mutable ""
par MultiSatellite_Standalone.iUpf.pppg$o[0].channel length 10m
attr unit m
par MultiSatellite_Standalone.iUpf.pppg$o[1].channel typename "\"inet.node.ethernet.Eth10G\""
par MultiSatellite_Standalone.iUpf.pppg$o[1].channel disabled false
attr mutable ""
par MultiSatellite_Standalone.iUpf.pppg$o[1].channel delay 5e-08s
attr mutable ""
attr unit s
par MultiSatellite_Standalone.iUpf.pppg$o[1].channel datarate 1e+10bps
attr mutable ""
attr unit bps
par MultiSatellite_Standalone.iUpf.pppg$o[1].channel ber 0
attr mutable ""
par MultiSatellite_Standalone.iUpf.pppg$o[1].channel per 0
attr mutable ""
par MultiSatellite_Standalone.iUpf.pppg$o[1].channel length 10m
attr unit m
par MultiSatellite_Standalone.gnbSat1.ppp$o.channel typename "\"inet.node.ethernet.Eth10G\""
par MultiSatellite_Standalone.gnbSat1.ppp$o.channel disabled false
attr mutable ""
par MultiSatellite_Standalone.gnbSat1.ppp$o.channel delay 5e-08s
attr mutable ""
attr unit s
par MultiSatellite_Standalone.gnbSat1.ppp$o.channel datarate 1e+10bps
attr mutable ""
attr unit bps
par MultiSatellite_Standalone.gnbSat1.ppp$o.channel ber 0
attr mutable ""
par MultiSatellite_Standalone.gnbSat1.ppp$o.channel per 0
attr mutable ""
par MultiSatellite_Standalone.gnbSat1.ppp$o.channel length 10m
attr unit m
par MultiSatellite_Standalone.iUpf.pppg$o[2].channel typename "\"inet.node.ethernet.Eth10G\""
par MultiSatellite_Standalone.iUpf.pppg$o[2].channel disabled false
attr mutable ""
par MultiSatellite_Standalone.iUpf.pppg$o[2].channel delay 5e-08s
attr mutable ""
attr unit s
par MultiSatellite_Standalone.iUpf.pppg$o[2].channel datarate 1e+10bps
attr mutable ""
attr unit bps
par MultiSatellite_Standalone.iUpf.pppg$o[2].channel ber 0
attr mutable ""
par MultiSatellite_Standalone.iUpf.pppg$o[2].channel per 0
attr mutable ""
par MultiSatellite_Standalone.iUpf.pppg$o[2].channel length 10m
attr unit m
par MultiSatellite_Standalone.gnbSat2.ppp$o.channel typename "\"inet.node.ethernet.Eth10G\""
par MultiSatellite_Standalone.gnbSat2.ppp$o.channel disabled false
attr mutable ""
par MultiSatellite_Standalone.gnbSat2.ppp$o.channel delay 5e-08s
attr mutable ""
attr unit s
par MultiSatellite_Standalone.gnbSat2.ppp$o.channel datarate 1e+10bps
attr mutable ""
attr unit bps
par MultiSatellite_Standalone.gnbSat2.ppp$o.channel ber 0
attr mutable ""
par MultiSatellite_Standalone.gnbSat2.ppp$o.channel per 0
attr mutable ""
par MultiSatellite_Standalone.gnbSat2.ppp$o.channel length 10m
attr unit m
par MultiSatellite_Standalone.gnbSat1.x2$o[0].channel typename "\"inet.node.ethernet.Eth10G\""
par MultiSatellite_Standalone.gnbSat1.x2$o[0].channel disabled false
attr mutable ""
par MultiSatellite_Standalone.gnbSat1.x2$o[0].channel delay 5e-08s
attr mutable ""
attr unit s
par MultiSatellite_Standalone.gnbSat1.x2$o[0].channel datarate 1e+10bps
attr mutable ""
attr unit bps
par MultiSatellite_Standalone.gnbSat1.x2$o[0].channel ber 0
attr mutable ""
par MultiSatellite_Standalone.gnbSat1.x2$o[0].channel per 0
attr mutable ""
par MultiSatellite_Standalone.gnbSat1.x2$o[0].channel length 10m
attr unit m
par MultiSatellite_Standalone.gnbSat2.x2$o[0].channel typename "\"inet.node.ethernet.Eth10G\""
par MultiSatellite_Standalone.gnbSat2.x2$o[0].channel disabled false
attr mutable ""
par MultiSatellite_Standalone.gnbSat2.x2$o[0].channel delay 5e-08s
attr mutable ""
attr unit s
par MultiSatellite_Standalone.gnbSat2.x2$o[0].channel datarate 1e+10bps
attr mutable ""
attr unit bps
par MultiSatellite_Standalone.gnbSat2.x2$o[0].channel ber 0
attr mutable ""
par MultiSatellite_Standalone.gnbSat2.x2$o[0].channel per 0
attr mutable ""
par MultiSatellite_Standalone.gnbSat2.x2$o[0].channel length 10m
attr unit m
par MultiSatellite_Standalone.channelControl typename "\"simu5g.world.radio.LteChannelControl\""
par MultiSatellite_Standalone.channelControl coreDebug false
par MultiSatellite_Standalone.channelControl pMax 20mW
attr unit mW
par MultiSatellite_Standalone.channelControl sat -110dBm
attr unit dBm
par MultiSatellite_Standalone.channelControl alpha 2
par MultiSatellite_Standalone.channelControl carrierFrequency 2.4e+09Hz
attr unit Hz
par MultiSatellite_Standalone.channelControl numChannels 1
par MultiSatellite_Standalone.channelControl propagationModel "\"FreeSpaceModel\""
attr enum FreeSpaceModel,TwoRayGroundModel,RiceModel,RayleighModel,NakagamiModel,LogNormalShadowingModel
par MultiSatellite_Standalone.routingRecorder typename "\"inet.networklayer.ipv4.RoutingTableRecorder\""
par MultiSatellite_Standalone.routingRecorder enabled false
par MultiSatellite_Standalone.configurator typename "\"inet.networklayer.configurator.ipv4.Ipv4NetworkConfigurator\""
par MultiSatellite_Standalone.configurator minLinkWeight 0.001
par MultiSatellite_Standalone.configurator configureIsolatedNetworksSeparatly false
par MultiSatellite_Standalone.configurator config "<config>...</config> at C:/Omnetpp/omnetpp-6.0.3/samples/simu5g/simulations/SatCom/satellite_multicell/\\./demo.xml:1"
par MultiSatellite_Standalone.configurator assignAddresses true
par MultiSatellite_Standalone.configurator assignUniqueAddresses true
par MultiSatellite_Standalone.configurator assignDisjunctSubnetAddresses true
par MultiSatellite_Standalone.configurator addStaticRoutes true
par MultiSatellite_Standalone.configurator addDefaultRoutes true
par MultiSatellite_Standalone.configurator addSubnetRoutes true
par MultiSatellite_Standalone.configurator addDirectRoutes true
par MultiSatellite_Standalone.configurator optimizeRoutes true
par MultiSatellite_Standalone.configurator dumpTopology false
par MultiSatellite_Standalone.configurator dumpLinks false
par MultiSatellite_Standalone.configurator dumpAddresses false
par MultiSatellite_Standalone.configurator dumpRoutes false
par MultiSatellite_Standalone.configurator dumpConfig "\"\""
par MultiSatellite_Standalone.binder typename "\"simu5g.common.binder.Binder\""
par MultiSatellite_Standalone.binder blerShift 5
par MultiSatellite_Standalone.binder maxDataRatePerRb 1.16Mbps
attr unit Mbps
par MultiSatellite_Standalone.binder printTrafficGeneratorConfig false
par MultiSatellite_Standalone.carrierAggregation.componentCarrier[0] typename "\"simu5g.common.carrierAggregation.ComponentCarrier\""
par MultiSatellite_Standalone.carrierAggregation.componentCarrier[0] carrierFrequency 2GHz
attr unit GHz
par MultiSatellite_Standalone.carrierAggregation.componentCarrier[0] numBands 50
par MultiSatellite_Standalone.carrierAggregation.componentCarrier[0] numerologyIndex 0
par MultiSatellite_Standalone.carrierAggregation.componentCarrier[0] useTdd false
par MultiSatellite_Standalone.carrierAggregation.componentCarrier[0] tddNumSymbolsDl 7
par MultiSatellite_Standalone.carrierAggregation.componentCarrier[0] tddNumSymbolsUl 7
par MultiSatellite_Standalone.carrierAggregation typename "\"simu5g.common.carrierAggregation.CarrierAggregation\""
par MultiSatellite_Standalone.carrierAggregation numComponentCarriers 1
par MultiSatellite_Standalone.server.pppg$i[0].channel typename "\"ned.IdealChannel\""
par MultiSatellite_Standalone.server.ppp[0].phys$o.channel typename "\"ned.IdealChannel\""
par MultiSatellite_Standalone.server.interfaceTable typename "\"inet.networklayer.common.InterfaceTable\""
par MultiSatellite_Standalone.server.interfaceTable displayAddresses false
par MultiSatellite_Standalone.server.cb typename "\"inet.common.MessageDispatcher\""
par MultiSatellite_Standalone.server.cb displayStringTextFormat "\"processed %p pk (%l)\""
par MultiSatellite_Standalone.server.cb forwardServiceRegistration true
par MultiSatellite_Standalone.server.cb forwardProtocolRegistration true
par MultiSatellite_Standalone.server.bl typename "\"inet.common.MessageDispatcher\""
par MultiSatellite_Standalone.server.bl displayStringTextFormat "\"processed %p pk (%l)\""
par MultiSatellite_Standalone.server.bl forwardServiceRegistration true
par MultiSatellite_Standalone.server.bl forwardProtocolRegistration true
par MultiSatellite_Standalone.server.li typename "\"inet.common.MessageDispatcher\""
par MultiSatellite_Standalone.server.li displayStringTextFormat "\"processed %p pk (%l)\""
par MultiSatellite_Standalone.server.li forwardServiceRegistration true
par MultiSatellite_Standalone.server.li forwardProtocolRegistration true
par MultiSatellite_Standalone.server.lo[0].upperLayerIn.channel typename "\"ned.IdealChannel\""
par MultiSatellite_Standalone.server.lo[0].lo.upperLayerOut.channel typename "\"ned.IdealChannel\""
par MultiSatellite_Standalone.server.lo[0].lo typename "\"inet.linklayer.loopback.Loopback\""
par MultiSatellite_Standalone.server.lo[0].lo interfaceTableModule "\"MultiSatellite_Standalone.server.interfaceTable\""
par MultiSatellite_Standalone.server.lo[0].lo mtu 4470B
attr unit B
scalar MultiSatellite_Standalone.server.lo[0].lo rcvdPkFromHl:count 0
attr interpolationmode none
attr recordingmode count
attr source packetReceivedFromUpper
attr title "packets received from higher layer, count"
scalar MultiSatellite_Standalone.server.lo[0].lo rcvdPkFromHl:sum(packetBytes) 0
attr interpolationmode none
attr recordingmode sum(packetBytes)
attr source packetReceivedFromUpper
attr title "packets received from higher layer, sum(packetBytes)"
scalar MultiSatellite_Standalone.server.lo[0].lo passedUpPk:count 0
attr interpolationmode none
attr recordingmode count
attr source packetSentToUpper
attr title "packets passed to higher layer, count"
scalar MultiSatellite_Standalone.server.lo[0].lo passedUpPk:sum(packetBytes) 0
attr interpolationmode none
attr recordingmode sum(packetBytes)
attr source packetSentToUpper
attr title "packets passed to higher layer, sum(packetBytes)"
par MultiSatellite_Standalone.server.lo[0] typename "\"inet.linklayer.loopback.LoopbackInterface\""
par MultiSatellite_Standalone.server.lo[0] displayStringTextFormat "\"%a (%i)\\n%m\""
par MultiSatellite_Standalone.server.lo[0] recordPcap false
par MultiSatellite_Standalone.server.lo[0] numPcapRecorders 0
par MultiSatellite_Standalone.server.lo[0] interfaceTableModule "\"MultiSatellite_Standalone.server.interfaceTable\""
scalar MultiSatellite_Standalone.server.lo[0] packetDropInterfaceDown:count 0
attr interpolationmode none
attr recordingmode count
attr source packetDropReasonIsInterfaceDown(packetDropped)
attr title "packet drops: interface down, count"
scalar MultiSatellite_Standalone.server.lo[0] packetDropInterfaceDown:sum(packetBytes) 0
attr interpolationmode none
attr recordingmode sum(packetBytes)
attr source packetDropReasonIsInterfaceDown(packetDropped)
attr title "packet drops: interface down, sum(packetBytes)"
scalar MultiSatellite_Standalone.server.lo[0] packetDropNoCarrier:count 0
attr interpolationmode none
attr recordingmode count
attr source packetDropReasonIsNoCarrier(packetDropped)
attr title "packet drops: no carrier, count"
scalar MultiSatellite_Standalone.server.lo[0] packetDropNoCarrier:sum(packetBytes) 0
attr interpolationmode none
attr recordingmode sum(packetBytes)
attr source packetDropReasonIsNoCarrier(packetDropped)
attr title "packet drops: no carrier, sum(packetBytes)"
par MultiSatellite_Standalone.server.ppp[0].phys$i.channel typename "\"ned.IdealChannel\""
par MultiSatellite_Standalone.server.ppp[0].ppp.phys$o.channel typename "\"ned.IdealChannel\""
par MultiSatellite_Standalone.server.ppp[0].ppp.upperLayerOut.channel typename "\"ned.IdealChannel\""
par MultiSatellite_Standalone.server.ppp[0].upperLayerIn.channel typename "\"ned.IdealChannel\""
par MultiSatellite_Standalone.server.ppp[0].queue typename "\"inet.queueing.queue.DropTailQueue\""
par MultiSatellite_Standalone.server.ppp[0].queue displayStringTextFormat "\"contains %p pk (%l) pushed %u\\npulled %o removed %r dropped %d\""
par MultiSatellite_Standalone.server.ppp[0].queue packetCapacity 10000
par MultiSatellite_Standalone.server.ppp[0].queue dataCapacity -1b
attr unit b
par MultiSatellite_Standalone.server.ppp[0].queue dropperClass "\"inet::queueing::PacketAtCollectionEndDropper\""
par MultiSatellite_Standalone.server.ppp[0].queue comparatorClass "\"\""
par MultiSatellite_Standalone.server.ppp[0].queue bufferModule "\"\""
scalar MultiSatellite_Standalone.server.ppp[0].queue queueLength:last 0
attr autoWarmupFilter false
attr interpolationmode sample-hold
attr recordingmode last
attr source "warmup(atomic(constant0(packetPushEnded) + count(packetPushStarted) - count(packetPulled) - count(packetRemoved) - count(packetDropped)))"
attr title "queue length, last"
attr unit pk
scalar MultiSatellite_Standalone.server.ppp[0].queue queueLength:max 0
attr autoWarmupFilter false
attr interpolationmode sample-hold
attr recordingmode max
attr source "warmup(atomic(constant0(packetPushEnded) + count(packetPushStarted) - count(packetPulled) - count(packetRemoved) - count(packetDropped)))"
attr title "queue length, max"
attr unit pk
scalar MultiSatellite_Standalone.server.ppp[0].queue queueLength:timeavg 0
attr autoWarmupFilter false
attr interpolationmode sample-hold
attr recordingmode timeavg
attr source "warmup(atomic(constant0(packetPushEnded) + count(packetPushStarted) - count(packetPulled) - count(packetRemoved) - count(packetDropped)))"
attr title "queue length, timeavg"
attr unit pk
scalar MultiSatellite_Standalone.server.ppp[0].queue queueBitLength:last 0
attr autoWarmupFilter false
attr interpolationmode sample-hold
attr recordingmode last
attr source "warmup(atomic(constant0(packetPushEnded) + sum(packetLength(packetPushStarted)) - sum(packetLength(packetPulled)) - sum(packetLength(packetRemoved)) - sum(packetLength(packetDropped))))"
attr title "queue bit length, last"
attr unit b
scalar MultiSatellite_Standalone.server.ppp[0].queue queueBitLength:max 0
attr autoWarmupFilter false
attr interpolationmode sample-hold
attr recordingmode max
attr source "warmup(atomic(constant0(packetPushEnded) + sum(packetLength(packetPushStarted)) - sum(packetLength(packetPulled)) - sum(packetLength(packetRemoved)) - sum(packetLength(packetDropped))))"
attr title "queue bit length, max"
attr unit b
scalar MultiSatellite_Standalone.server.ppp[0].queue queueBitLength:timeavg 0
attr autoWarmupFilter false
attr interpolationmode sample-hold
attr recordingmode timeavg
attr source "warmup(atomic(constant0(packetPushEnded) + sum(packetLength(packetPushStarted)) - sum(packetLength(packetPulled)) - sum(packetLength(packetRemoved)) - sum(packetLength(packetDropped))))"
attr title "queue bit length, timeavg"
attr unit b
statistic MultiSatellite_Standalone.server.ppp[0].queue queueingTime:histogram
field count 2000
field mean 0
field stddev 0
field min 0
field max 0
field sum 0
field sqrsum 0
attr interpolationmode none
attr recordingmode histogram
attr source queueingTime(packetPulled)
attr title "queueing times"
attr unit s
bin	-inf	0
bin	-0.5	0
bin	-0.48	0
bin	-0.46	0
bin	-0.44	0
bin	-0.42	0
bin	-0.4	0
bin	-0.38	0
bin	-0.36	0
bin	-0.34	0
bin	-0.32	0
bin	-0.3	0
bin	-0.28	0
bin	-0.26	0
bin	-0.24	0
bin	-0.22	0
bin	-0.2	0
bin	-0.18	0
bin	-0.16	0
bin	-0.14	0
bin	-0.12	0
bin	-0.1	0
bin	-0.08	0
bin	-0.06	0
bin	-0.04	0
bin	-0.02	0
bin	0	2000
bin	0.02	0
bin	0.04	0
bin	0.06	0
bin	0.08	0
bin	0.1	0
bin	0.12	0
bin	0.14	0
bin	0.16	0
bin	0.18	0
bin	0.2	0
bin	0.22	0
bin	0.24	0
bin	0.26	0
bin	0.28	0
bin	0.3	0
bin	0.32	0
bin	0.34	0
bin	0.36	0
bin	0.38	0
bin	0.4	0
bin	0.42	0
bin	0.44	0
bin	0.46	0
bin	0.48	0
bin	0.5	0
scalar MultiSatellite_Standalone.server.ppp[0].queue outgoingPackets:count 2000
attr recordingmode count
attr source packetPulled
attr title "outgoing packets, count"
attr unit pk
scalar MultiSatellite_Standalone.server.ppp[0].queue outgoingPacketLengths:sum 2048000
attr interpolationmode none
attr recordingmode sum
attr source packetLength(packetPulled)
attr title "outgoing packet lengths, sum"
attr unit b
statistic MultiSatellite_Standalone.server.ppp[0].queue outgoingPacketLengths:histogram
field count 2000
field mean 1024
field stddev 0
field min 1024
field max 1024
field sum 2048000
field sqrsum 2097152000
attr interpolationmode none
attr recordingmode histogram
attr source packetLength(packetPulled)
attr title "outgoing packet lengths"
attr unit b
bin	-inf	0
bin	1023	0
bin	1024	2000
bin	1025	0
statistic MultiSatellite_Standalone.server.ppp[0].queue flowQueueingTime:histogram
field count 0
field mean nan
field stddev nan
field min nan
field max nan
field sum 0
field sqrsum 0
attr interpolationmode none
attr recordingmode histogram
attr source queueingTime(demuxFlow(packetPulled))
attr title "flow queueing times"
attr unit s
bin	-inf	0
bin	0	0
bin	1	0
scalar MultiSatellite_Standalone.server.ppp[0].queue incomingPackets:count 2000
attr recordingmode count
attr source packetPushStarted
attr title "incoming packets, count"
attr unit pk
scalar MultiSatellite_Standalone.server.ppp[0].queue incomingPacketLengths:sum 2048000
attr interpolationmode none
attr recordingmode sum
attr source packetLength(packetPushStarted)
attr title "incoming packet lengths, sum"
attr unit b
statistic MultiSatellite_Standalone.server.ppp[0].queue incomingPacketLengths:histogram
field count 2000
field mean 1024
field stddev 0
field min 1024
field max 1024
field sum 2048000
field sqrsum 2097152000
attr interpolationmode none
attr recordingmode histogram
attr source packetLength(packetPushStarted)
attr title "incoming packet lengths"
attr unit b
bin	-inf	0
bin	1023	0
bin	1024	2000
bin	1025	0
scalar MultiSatellite_Standalone.server.ppp[0].queue droppedPacketsQueueOverflow:count 0
attr interpolationmode none
attr recordingmode count
attr source packetDropReasonIsQueueOverflow(packetDropped)
attr title "dropped packets: queue overflow, count"
attr unit pk
scalar MultiSatellite_Standalone.server.ppp[0].queue droppedPacketLengthsQueueOverflow:sum 0
attr interpolationmode none
attr recordingmode sum
attr source packetLength(packetDropReasonIsQueueOverflow(packetDropped))
attr title "dropped packet lengths: queue overflow, sum"
attr unit b
par MultiSatellite_Standalone.server.ppp[0].ppp typename "\"inet.linklayer.ppp.Ppp\""
par MultiSatellite_Standalone.server.ppp[0].ppp interfaceTableModule "\"MultiSatellite_Standalone.server.interfaceTable\""
par MultiSatellite_Standalone.server.ppp[0].ppp displayStringTextFormat "\"rate: %b\\nsent: %s, rcvd: %r\\nqueue: %q, drop: %d\""
par MultiSatellite_Standalone.server.ppp[0].ppp sendRawBytes false
par MultiSatellite_Standalone.server.ppp[0].ppp mtu 4470B
attr unit B
par MultiSatellite_Standalone.server.ppp[0].ppp stopOperationExtraTime -1s
attr unit s
par MultiSatellite_Standalone.server.ppp[0].ppp stopOperationTimeout 2s
attr unit s
scalar MultiSatellite_Standalone.server.ppp[0].ppp txPk:count 2000
attr interpolationmode none
attr recordingmode count
attr source packetSentToLower
attr title "packets transmitted, count"
scalar MultiSatellite_Standalone.server.ppp[0].ppp txPk:sum(packetBytes) 270000
attr interpolationmode none
attr recordingmode sum(packetBytes)
attr source packetSentToLower
attr title "packets transmitted, sum(packetBytes)"
scalar MultiSatellite_Standalone.server.ppp[0].ppp rcvdPkFromHl:count 2000
attr interpolationmode none
attr recordingmode count
attr source packetReceivedFromUpper
attr title "packets received from higher layer, count"
scalar MultiSatellite_Standalone.server.ppp[0].ppp rcvdPkFromHl:sum(packetBytes) 256000
attr interpolationmode none
attr recordingmode sum(packetBytes)
attr source packetReceivedFromUpper
attr title "packets received from higher layer, sum(packetBytes)"
scalar MultiSatellite_Standalone.server.ppp[0].ppp passedUpPk:count 0
attr interpolationmode none
attr recordingmode count
attr source packetSentToUpper
attr title "packets passed to higher layer, count"
scalar MultiSatellite_Standalone.server.ppp[0].ppp passedUpPk:sum(packetBytes) 0
attr interpolationmode none
attr recordingmode sum(packetBytes)
attr source packetSentToUpper
attr title "packets passed to higher layer, sum(packetBytes)"
scalar MultiSatellite_Standalone.server.ppp[0].ppp packetDropIncorrectlyReceived:count 0
attr interpolationmode none
attr recordingmode count
attr source packetDropReasonIsIncorrectlyReceived(packetDropped)
attr title "packet drop: incorrectly received, count"
scalar MultiSatellite_Standalone.server.ppp[0].ppp packetDropIncorrectlyReceived:sum(packetBytes) 0
attr interpolationmode none
attr recordingmode sum(packetBytes)
attr source packetDropReasonIsIncorrectlyReceived(packetDropped)
attr title "packet drop: incorrectly received, sum(packetBytes)"
scalar MultiSatellite_Standalone.server.ppp[0].ppp packetDropInterfaceDown:count 0
attr interpolationmode none
attr recordingmode count
attr source packetDropReasonIsInterfaceDown(packetDropped)
attr title "packet drop: interface down, count"
scalar MultiSatellite_Standalone.server.ppp[0].ppp packetDropInterfaceDown:sum(packetBytes) 0
attr interpolationmode none
attr recordingmode sum(packetBytes)
attr source packetDropReasonIsInterfaceDown(packetDropped)
attr title "packet drop: interface down, sum(packetBytes)"
scalar MultiSatellite_Standalone.server.ppp[0].ppp rxPkOk:count 0
attr interpolationmode none
attr recordingmode count
attr source rxPkOk
attr title "packets received OK, count"
scalar MultiSatellite_Standalone.server.ppp[0].ppp rxPkOk:sum(packetBytes) 0
attr interpolationmode none
attr recordingmode sum(packetBytes)
attr source rxPkOk
attr title "packets received OK, sum(packetBytes)"
scalar MultiSatellite_Standalone.server.ppp[0].ppp transmissionState:timeavg 5.3999999999999e-06
attr interpolationmode sample-hold
attr recordingmode timeavg
attr source transmissionStateChanged
attr title "tx state, timeavg"
par MultiSatellite_Standalone.server.ppp[0] typename "\"inet.linklayer.ppp.PppInterface\""
par MultiSatellite_Standalone.server.ppp[0] displayStringTextFormat "\"%a (%i)\\n%m\""
par MultiSatellite_Standalone.server.ppp[0] recordPcap false
par MultiSatellite_Standalone.server.ppp[0] numPcapRecorders 0
par MultiSatellite_Standalone.server.ppp[0] interfaceTableModule "\"MultiSatellite_Standalone.server.interfaceTable\""
scalar MultiSatellite_Standalone.server.ppp[0] packetDropInterfaceDown:count 0
attr interpolationmode none
attr recordingmode count
attr source packetDropReasonIsInterfaceDown(packetDropped)
attr title "packet drops: interface down, count"
scalar MultiSatellite_Standalone.server.ppp[0] packetDropInterfaceDown:sum(packetBytes) 0
attr interpolationmode none
attr recordingmode sum(packetBytes)
attr source packetDropReasonIsInterfaceDown(packetDropped)
attr title "packet drops: interface down, sum(packetBytes)"
scalar MultiSatellite_Standalone.server.ppp[0] packetDropNoCarrier:count 0
attr interpolationmode none
attr recordingmode count
attr source packetDropReasonIsNoCarrier(packetDropped)
attr title "packet drops: no carrier, count"
scalar MultiSatellite_Standalone.server.ppp[0] packetDropNoCarrier:sum(packetBytes) 0
attr interpolationmode none
attr recordingmode sum(packetBytes)
attr source packetDropReasonIsNoCarrier(packetDropped)
attr title "packet drops: no carrier, sum(packetBytes)"
par MultiSatellite_Standalone.server.ipv4.transportIn.channel typename "\"ned.IdealChannel\""
par MultiSatellite_Standalone.server.ipv4.up.out[0].channel typename "\"ned.IdealChannel\""
par MultiSatellite_Standalone.server.ipv4.lp.out[2].channel typename "\"ned.IdealChannel\""
par MultiSatellite_Standalone.server.ipv4.ifIn.channel typename "\"ned.IdealChannel\""
par MultiSatellite_Standalone.server.ipv4.configurator typename "\"inet.networklayer.configurator.ipv4.Ipv4NodeConfigurator\""
par MultiSatellite_Standalone.server.ipv4.configurator interfaceTableModule "\"MultiSatellite_Standalone.server.interfaceTable\""
par MultiSatellite_Standalone.server.ipv4.configurator routingTableModule "\"MultiSatellite_Standalone.server.ipv4.routingTable\""
par MultiSatellite_Standalone.server.ipv4.configurator networkConfiguratorModule "\"configurator\""
par MultiSatellite_Standalone.server.ipv4.configurator configureRoutingTable true
par MultiSatellite_Standalone.server.ipv4.routingTable typename "\"inet.networklayer.ipv4.Ipv4RoutingTable\""
par MultiSatellite_Standalone.server.ipv4.routingTable interfaceTableModule "\"MultiSatellite_Standalone.server.interfaceTable\""
par MultiSatellite_Standalone.server.ipv4.routingTable routerId "\"auto\""
par MultiSatellite_Standalone.server.ipv4.routingTable netmaskRoutes "\"*\""
par MultiSatellite_Standalone.server.ipv4.routingTable forwarding false
par MultiSatellite_Standalone.server.ipv4.routingTable multicastForwarding false
par MultiSatellite_Standalone.server.ipv4.routingTable useAdminDist false
par MultiSatellite_Standalone.server.ipv4.routingTable routingFile "\"\""
par MultiSatellite_Standalone.server.ipv4.natTable typename "\"inet.networklayer.ipv4.Ipv4NatTable\""
par MultiSatellite_Standalone.server.ipv4.natTable networkProtocolModule "\"^.ip\""
par MultiSatellite_Standalone.server.ipv4.natTable config "<config/> at content:1"
par MultiSatellite_Standalone.server.ipv4.up typename "\"inet.common.MessageDispatcher\""
par MultiSatellite_Standalone.server.ipv4.up displayStringTextFormat "\"processed %p pk (%l)\""
par MultiSatellite_Standalone.server.ipv4.up forwardServiceRegistration true
par MultiSatellite_Standalone.server.ipv4.up forwardProtocolRegistration true
par MultiSatellite_Standalone.server.ipv4.igmp typename "\"inet.networklayer.ipv4.Igmpv2\""
par MultiSatellite_Standalone.server.ipv4.igmp interfaceTableModule "\"MultiSatellite_Standalone.server.interfaceTable\""
par MultiSatellite_Standalone.server.ipv4.igmp routingTableModule "\"MultiSatellite_Standalone.server.ipv4.routingTable\""
par MultiSatellite_Standalone.server.ipv4.igmp crcMode "\"declared\""
attr enum declared,computed
par MultiSatellite_Standalone.server.ipv4.igmp enabled true
par MultiSatellite_Standalone.server.ipv4.igmp robustnessVariable 2
par MultiSatellite_Standalone.server.ipv4.igmp queryInterval 125s
attr unit s
par MultiSatellite_Standalone.server.ipv4.igmp queryResponseInterval 10s
attr unit s
par MultiSatellite_Standalone.server.ipv4.igmp groupMembershipInterval 260s
attr unit s
par MultiSatellite_Standalone.server.ipv4.igmp otherQuerierPresentInterval 255s
attr unit s
par MultiSatellite_Standalone.server.ipv4.igmp startupQueryInterval 31.25s
attr unit s
par MultiSatellite_Standalone.server.ipv4.igmp startupQueryCount 2
par MultiSatellite_Standalone.server.ipv4.igmp lastMemberQueryInterval 1s
attr unit s
par MultiSatellite_Standalone.server.ipv4.igmp lastMemberQueryCount 2
par MultiSatellite_Standalone.server.ipv4.igmp unsolicitedReportInterval 10s
attr unit s
par MultiSatellite_Standalone.server.ipv4.icmp typename "\"inet.networklayer.ipv4.Icmp\""
par MultiSatellite_Standalone.server.ipv4.icmp interfaceTableModule "\"MultiSatellite_Standalone.server.interfaceTable\""
par MultiSatellite_Standalone.server.ipv4.icmp routingTableModule "\"MultiSatellite_Standalone.server.ipv4.routingTable\""
par MultiSatellite_Standalone.server.ipv4.icmp crcMode "\"declared\""
attr enum declared,computed
attr mutable ""
par MultiSatellite_Standalone.server.ipv4.icmp quoteLength 8B
attr mutable ""
attr unit B
par MultiSatellite_Standalone.server.ipv4.mp typename "\"inet.common.MessageDispatcher\""
par MultiSatellite_Standalone.server.ipv4.mp displayStringTextFormat "\"processed %p pk (%l)\""
par MultiSatellite_Standalone.server.ipv4.mp forwardServiceRegistration true
par MultiSatellite_Standalone.server.ipv4.mp forwardProtocolRegistration true
par MultiSatellite_Standalone.server.ipv4.ip typename "\"inet.networklayer.ipv4.Ipv4\""
par MultiSatellite_Standalone.server.ipv4.ip interfaceTableModule "\"MultiSatellite_Standalone.server.interfaceTable\""
par MultiSatellite_Standalone.server.ipv4.ip routingTableModule "\"MultiSatellite_Standalone.server.ipv4.routingTable\""
par MultiSatellite_Standalone.server.ipv4.ip arpModule "\"MultiSatellite_Standalone.server.ipv4.arp\""
par MultiSatellite_Standalone.server.ipv4.ip icmpModule "\"MultiSatellite_Standalone.server.ipv4.icmp\""
par MultiSatellite_Standalone.server.ipv4.ip crcMode "\"declared\""
attr enum declared,computed
par MultiSatellite_Standalone.server.ipv4.ip timeToLive 32
par MultiSatellite_Standalone.server.ipv4.ip multicastTimeToLive 32
par MultiSatellite_Standalone.server.ipv4.ip fragmentTimeout 60s
attr unit s
par MultiSatellite_Standalone.server.ipv4.ip limitedBroadcast false
par MultiSatellite_Standalone.server.ipv4.ip directBroadcastInterfaces "\"\""
scalar MultiSatellite_Standalone.server.ipv4.ip packetDropAddressResolutionFailed:count 0
attr interpolationmode none
attr recordingmode count
attr source packetDropReasonIsAddressResolutionFailed(packetDropped)
attr title "packet drop: address resolution failed, count"
scalar MultiSatellite_Standalone.server.ipv4.ip packetDropAddressResolutionFailed:sum(packetBytes) 0
attr interpolationmode none
attr recordingmode sum(packetBytes)
attr source packetDropReasonIsAddressResolutionFailed(packetDropped)
attr title "packet drop: address resolution failed, sum(packetBytes)"
scalar MultiSatellite_Standalone.server.ipv4.ip packetDropHopLimitReached:count 0
attr interpolationmode none
attr recordingmode count
attr source packetDropReasonIsHopLimitReached(packetDropped)
attr title "packet drop: hop limit reached, count"
scalar MultiSatellite_Standalone.server.ipv4.ip packetDropHopLimitReached:sum(packetBytes) 0
attr interpolationmode none
attr recordingmode sum(packetBytes)
attr source packetDropReasonIsHopLimitReached(packetDropped)
attr title "packet drop: hop limit reached, sum(packetBytes)"
scalar MultiSatellite_Standalone.server.ipv4.ip packetDropForwardingDisabled:count 0
attr interpolationmode none
attr recordingmode count
attr source packetDropReasonIsForwardingDisabled(packetDropped)
attr title "packet drop: forwarding disabled, count"
scalar MultiSatellite_Standalone.server.ipv4.ip packetDropForwardingDisabled:sum(packetBytes) 0
attr interpolationmode none
attr recordingmode sum(packetBytes)
attr source packetDropReasonIsForwardingDisabled(packetDropped)
attr title "packet drop: forwarding disabled, sum(packetBytes)"
scalar MultiSatellite_Standalone.server.ipv4.ip packetDropNoInterfaceFound:count 0
attr interpolationmode none
attr recordingmode count
attr source packetDropReasonIsNoInterfaceFound(packetDropped)
attr title "packet drop: no interface found, count"
scalar MultiSatellite_Standalone.server.ipv4.ip packetDropNoInterfaceFound:sum(packetBytes) 0
attr interpolationmode none
attr recordingmode sum(packetBytes)
attr source packetDropReasonIsNoInterfaceFound(packetDropped)
attr title "packet drop: no interface found, sum(packetBytes)"
scalar MultiSatellite_Standalone.server.ipv4.ip packetDropNoRouteFound:count 0
attr interpolationmode none
attr recordingmode count
attr source packetDropReasonIsNoRouteFound(packetDropped)
attr title "packet drop: no route found, count"
scalar MultiSatellite_Standalone.server.ipv4.ip packetDropNoRouteFound:sum(packetBytes) 0
attr interpolationmode none
attr recordingmode sum(packetBytes)
attr source packetDropReasonIsNoRouteFound(packetDropped)
attr title "packet drop: no route found, sum(packetBytes)"
scalar MultiSatellite_Standalone.server.ipv4.ip packetDropUndefined:count 0
attr interpolationmode none
attr recordingmode count
attr source packetDropReasonIsUndefined(packetDropped)
attr title "packet drop: undefined, count"
scalar MultiSatellite_Standalone.server.ipv4.ip packetDropUndefined:sum(packetBytes) 0
attr interpolationmode none
attr recordingmode sum(packetBytes)
attr source packetDropReasonIsUndefined(packetDropped)
attr title "packet drop: undefined, sum(packetBytes)"
par MultiSatellite_Standalone.server.ipv4.arp typename "\"inet.networklayer.arp.ipv4.Arp\""
par MultiSatellite_Standalone.server.ipv4.arp interfaceTableModule "\"MultiSatellite_Standalone.server.interfaceTable\""
par MultiSatellite_Standalone.server.ipv4.arp routingTableModule "\"MultiSatellite_Standalone.server.ipv4.routingTable\""
par MultiSatellite_Standalone.server.ipv4.arp retryTimeout 1s
attr unit s
par MultiSatellite_Standalone.server.ipv4.arp retryCount 3
par MultiSatellite_Standalone.server.ipv4.arp cacheTimeout 120s
attr unit s
par MultiSatellite_Standalone.server.ipv4.arp proxyArpInterfaces "\"\""
scalar MultiSatellite_Standalone.server.ipv4.arp arpReplySent:count 0
attr recordingmode count
attr source arpReplySent
attr title "ARP replies sent, count"
scalar MultiSatellite_Standalone.server.ipv4.arp arpReplySent:sum(packetBytes) 0
attr recordingmode sum(packetBytes)
attr source arpReplySent
attr title "ARP replies sent, sum(packetBytes)"
scalar MultiSatellite_Standalone.server.ipv4.arp arpRequestSent:count 0
attr recordingmode count
attr source arpRequestSent
attr title "ARP request sent, count"
scalar MultiSatellite_Standalone.server.ipv4.arp arpRequestSent:sum(packetBytes) 0
attr recordingmode sum(packetBytes)
attr source arpRequestSent
attr title "ARP request sent, sum(packetBytes)"
scalar MultiSatellite_Standalone.server.ipv4.arp arpResolutionFailed:count 0
attr recordingmode count
attr title "ARP failed resolutions, count"
scalar MultiSatellite_Standalone.server.ipv4.arp arpResolutionCompleted:count 0
attr recordingmode count
attr title "ARP completed resolutions, count"
scalar MultiSatellite_Standalone.server.ipv4.arp arpResolutionInitiated:count 0
attr recordingmode count
attr title "ARP initiated resolutions, count"
par MultiSatellite_Standalone.server.ipv4.lp typename "\"inet.common.MessageDispatcher\""
par MultiSatellite_Standalone.server.ipv4.lp displayStringTextFormat "\"processed %p pk (%l)\""
par MultiSatellite_Standalone.server.ipv4.lp forwardServiceRegistration true
par MultiSatellite_Standalone.server.ipv4.lp forwardProtocolRegistration true
par MultiSatellite_Standalone.server.ipv4 typename "\"inet.networklayer.ipv4.Ipv4NetworkLayer\""
par MultiSatellite_Standalone.server.ipv4 forwarding false
par MultiSatellite_Standalone.server.ipv4 multicastForwarding false
par MultiSatellite_Standalone.server.ipv4 interfaceTableModule "\"MultiSatellite_Standalone.server.interfaceTable\""
par MultiSatellite_Standalone.server.ipv4 displayStringTextFormat "\"%i\""
par MultiSatellite_Standalone.server.nl typename "\"inet.common.MessageDispatcher\""
par MultiSatellite_Standalone.server.nl displayStringTextFormat "\"processed %p pk (%l)\""
par MultiSatellite_Standalone.server.nl forwardServiceRegistration true
par MultiSatellite_Standalone.server.nl forwardProtocolRegistration true
par MultiSatellite_Standalone.server.udp typename "\"inet.transportlayer.udp.Udp\""
par MultiSatellite_Standalone.server.udp interfaceTableModule "\"MultiSatellite_Standalone.server.interfaceTable\""
par MultiSatellite_Standalone.server.udp icmpModule "\"^.ipv4.icmp\""
par MultiSatellite_Standalone.server.udp icmpv6Module "\"^.ipv6.icmpv6\""
par MultiSatellite_Standalone.server.udp crcMode "\"declared\""
attr enum disabled,declared,computed
par MultiSatellite_Standalone.server.udp defaultMulticastLoop true
scalar MultiSatellite_Standalone.server.udp packetReceived:count 0
attr interpolationmode none
attr recordingmode count
attr source packetReceived
attr title "packets received, count"
scalar MultiSatellite_Standalone.server.udp packetReceived:sum(packetBytes) 0
attr interpolationmode none
attr recordingmode sum(packetBytes)
attr source packetReceived
attr title "packets received, sum(packetBytes)"
scalar MultiSatellite_Standalone.server.udp packetSent:count 2000
attr interpolationmode none
attr recordingmode count
attr source packetSent
attr title "packets sent, count"
scalar MultiSatellite_Standalone.server.udp packetSent:sum(packetBytes) 216000
attr interpolationmode none
attr recordingmode sum(packetBytes)
attr source packetSent
attr title "packets sent, sum(packetBytes)"
scalar MultiSatellite_Standalone.server.udp passedUpPk:count 0
attr interpolationmode none
attr recordingmode count
attr source packetSentToUpper
attr title "packets passed up, count"
scalar MultiSatellite_Standalone.server.udp droppedPkWrongPort:count 0
attr interpolationmode none
attr recordingmode count
attr source packetDropReasonIsNoPortFound(packetDropped)
attr title "packets dropped (wrong port), count"
scalar MultiSatellite_Standalone.server.udp droppedPkBadChecksum:count 0
attr interpolationmode none
attr recordingmode count
attr source packetDropReasonIsIncorrectlyReceived(packetDropped)
attr title "packets dropped (checksum error), count"
par MultiSatellite_Standalone.server.tcp typename "\"inet.transportlayer.tcp.Tcp\""
par MultiSatellite_Standalone.server.tcp crcMode "\"declared\""
attr enum declared,computed
par MultiSatellite_Standalone.server.tcp advertisedWindow 7504
par MultiSatellite_Standalone.server.tcp delayedAcksEnabled false
par MultiSatellite_Standalone.server.tcp nagleEnabled true
par MultiSatellite_Standalone.server.tcp limitedTransmitEnabled false
par MultiSatellite_Standalone.server.tcp increasedIWEnabled false
par MultiSatellite_Standalone.server.tcp sackSupport false
par MultiSatellite_Standalone.server.tcp windowScalingSupport false
par MultiSatellite_Standalone.server.tcp windowScalingFactor -1
par MultiSatellite_Standalone.server.tcp timestampSupport false
par MultiSatellite_Standalone.server.tcp mss 536
par MultiSatellite_Standalone.server.tcp msl 120s
attr unit s
par MultiSatellite_Standalone.server.tcp tcpAlgorithmClass "\"TcpReno\""
attr enum TcpVegas,TcpWestwood,TcpNewReno,TcpReno,TcpTahoe,TcpNoCongestionControl
par MultiSatellite_Standalone.server.tcp useDataNotification false
par MultiSatellite_Standalone.server.tcp dupthresh 3
par MultiSatellite_Standalone.server.tcp initialSsthresh 4294967295
par MultiSatellite_Standalone.server.tcp stopOperationExtraTime 0s
attr unit s
par MultiSatellite_Standalone.server.tcp stopOperationTimeout 2s
attr unit s
par MultiSatellite_Standalone.server.tcp ecnWillingness false
par MultiSatellite_Standalone.server.tcp dctcpGamma 0.0625
par MultiSatellite_Standalone.server.tn typename "\"inet.common.MessageDispatcher\""
par MultiSatellite_Standalone.server.tn displayStringTextFormat "\"processed %p pk (%l)\""
par MultiSatellite_Standalone.server.tn forwardServiceRegistration true
par MultiSatellite_Standalone.server.tn forwardProtocolRegistration true
par MultiSatellite_Standalone.server.app[0] typename "\"simu5g.apps.cbr.CbrSender\""
par MultiSatellite_Standalone.server.app[0] localPort 3088
par MultiSatellite_Standalone.server.app[0] destPort 3000
par MultiSatellite_Standalone.server.app[0] destAddress "\"ue[0]\""
par MultiSatellite_Standalone.server.app[0] PacketSize 100
par MultiSatellite_Standalone.server.app[0] sampling_time 0.02s
attr unit s
par MultiSatellite_Standalone.server.app[0] startTime 0.0162304s
attr unit s
par MultiSatellite_Standalone.server.app[0] finishTime 40s
attr unit s
par MultiSatellite_Standalone.server.app[0] tos -1
scalar MultiSatellite_Standalone.server.app[0] cbrGeneratedBytes:timeavg 100
attr recordingmode timeavg
attr source cbrGeneratedBytesSignal
attr title "Bytes generated by the application, timeavg"
attr unit Bps
scalar MultiSatellite_Standalone.server.app[0] cbrGeneratedBytes:mean 100
attr recordingmode mean
attr source cbrGeneratedBytesSignal
attr title "Bytes generated by the application, mean"
attr unit Bps
scalar MultiSatellite_Standalone.server.app[0] cbrGeneratedBytes:last(sumPerDuration) 5000.4712482252
attr recordingmode last(sumPerDuration)
attr source cbrGeneratedBytesSignal
attr title "Bytes generated by the application, last(sumPerDuration)"
attr unit Bps
scalar MultiSatellite_Standalone.server.app[0] cbrGeneratedBytes:sum 200000
attr recordingmode sum
attr source cbrGeneratedBytesSignal
attr title "Bytes generated by the application, sum"
attr unit Bps
scalar MultiSatellite_Standalone.server.app[0] cbrGeneratedThroughtput:timeavg nan
attr recordingmode timeavg
attr source cbrGeneratedThroughtputSignal
attr title "Throughput generated by the application, timeavg"
attr unit Bps
scalar MultiSatellite_Standalone.server.app[0] cbrGeneratedThroughtput:mean 5000
attr recordingmode mean
attr source cbrGeneratedThroughtputSignal
attr title "Throughput generated by the application, mean"
attr unit Bps
scalar MultiSatellite_Standalone.server.app[0] cbrGeneratedThroughtput:last(sumPerDuration) 125
attr recordingmode last(sumPerDuration)
attr source cbrGeneratedThroughtputSignal
attr title "Throughput generated by the application, last(sumPerDuration)"
attr unit Bps
scalar MultiSatellite_Standalone.server.app[0] cbrGeneratedThroughtput:sum 5000
attr recordingmode sum
attr source cbrGeneratedThroughtputSignal
attr title "Throughput generated by the application, sum"
attr unit Bps
par MultiSatellite_Standalone.server.at typename "\"inet.common.MessageDispatcher\""
par MultiSatellite_Standalone.server.at displayStringTextFormat "\"processed %p pk (%l)\""
par MultiSatellite_Standalone.server.at forwardServiceRegistration true
par MultiSatellite_Standalone.server.at forwardProtocolRegistration true
par MultiSatellite_Standalone.server typename "\"inet.node.inet.StandardHost\""
par MultiSatellite_Standalone.server hasStatus false
par MultiSatellite_Standalone.server osgModel "\"\""
par MultiSatellite_Standalone.server osgModelColor "\"\""
par MultiSatellite_Standalone.server canvasImage "\"\""
par MultiSatellite_Standalone.server canvasImageColor "\"\""
par MultiSatellite_Standalone.server recordPcap false
par MultiSatellite_Standalone.server numPcapRecorders 0
par MultiSatellite_Standalone.server numLoInterfaces 1
par MultiSatellite_Standalone.server numWlanInterfaces 0
par MultiSatellite_Standalone.server numEthInterfaces 0
par MultiSatellite_Standalone.server numPppInterfaces 0
par MultiSatellite_Standalone.server numTunInterfaces 0
par MultiSatellite_Standalone.server numVirtInterfaces 0
par MultiSatellite_Standalone.server fcsMode "\"declared\""
attr enum declared,computed
par MultiSatellite_Standalone.server hasIpv4 true
par MultiSatellite_Standalone.server hasIpv6 false
par MultiSatellite_Standalone.server hasGn false
par MultiSatellite_Standalone.server forwarding false
par MultiSatellite_Standalone.server multicastForwarding false
par MultiSatellite_Standalone.server hasUdp true
par MultiSatellite_Standalone.server hasTcp true
par MultiSatellite_Standalone.server hasSctp false
par MultiSatellite_Standalone.server numApps 1
par MultiSatellite_Standalone.router.pppg$i[0].channel typename "\"ned.IdealChannel\""
par MultiSatellite_Standalone.router.ppp[0].phys$o.channel typename "\"ned.IdealChannel\""
par MultiSatellite_Standalone.router.pppg$i[1].channel typename "\"ned.IdealChannel\""
par MultiSatellite_Standalone.router.ppp[1].phys$o.channel typename "\"ned.IdealChannel\""
par MultiSatellite_Standalone.router.interfaceTable typename "\"inet.networklayer.common.InterfaceTable\""
par MultiSatellite_Standalone.router.interfaceTable displayAddresses false
par MultiSatellite_Standalone.router.cb typename "\"inet.common.MessageDispatcher\""
par MultiSatellite_Standalone.router.cb displayStringTextFormat "\"processed %p pk (%l)\""
par MultiSatellite_Standalone.router.cb forwardServiceRegistration true
par MultiSatellite_Standalone.router.cb forwardProtocolRegistration true
par MultiSatellite_Standalone.router.bl typename "\"inet.common.MessageDispatcher\""
par MultiSatellite_Standalone.router.bl displayStringTextFormat "\"processed %p pk (%l)\""
par MultiSatellite_Standalone.router.bl forwardServiceRegistration true
par MultiSatellite_Standalone.router.bl forwardProtocolRegistration true
par MultiSatellite_Standalone.router.li typename "\"inet.common.MessageDispatcher\""
par MultiSatellite_Standalone.router.li displayStringTextFormat "\"processed %p pk (%l)\""
par MultiSatellite_Standalone.router.li forwardServiceRegistration true
par MultiSatellite_Standalone.router.li forwardProtocolRegistration true
par MultiSatellite_Standalone.router.lo[0].upperLayerIn.channel typename "\"ned.IdealChannel\""
par MultiSatellite_Standalone.router.lo[0].lo.upperLayerOut.channel typename "\"ned.IdealChannel\""
par MultiSatellite_Standalone.router.lo[0].lo typename "\"inet.linklayer.loopback.Loopback\""
par MultiSatellite_Standalone.router.lo[0].lo interfaceTableModule "\"MultiSatellite_Standalone.router.interfaceTable\""
par MultiSatellite_Standalone.router.lo[0].lo mtu 4470B
attr unit B
scalar MultiSatellite_Standalone.router.lo[0].lo rcvdPkFromHl:count 0
attr interpolationmode none
attr recordingmode count
attr source packetReceivedFromUpper
attr title "packets received from higher layer, count"
scalar MultiSatellite_Standalone.router.lo[0].lo rcvdPkFromHl:sum(packetBytes) 0
attr interpolationmode none
attr recordingmode sum(packetBytes)
attr source packetReceivedFromUpper
attr title "packets received from higher layer, sum(packetBytes)"
scalar MultiSatellite_Standalone.router.lo[0].lo passedUpPk:count 0
attr interpolationmode none
attr recordingmode count
attr source packetSentToUpper
attr title "packets passed to higher layer, count"
scalar MultiSatellite_Standalone.router.lo[0].lo passedUpPk:sum(packetBytes) 0
attr interpolationmode none
attr recordingmode sum(packetBytes)
attr source packetSentToUpper
attr title "packets passed to higher layer, sum(packetBytes)"
par MultiSatellite_Standalone.router.lo[0] typename "\"inet.linklayer.loopback.LoopbackInterface\""
par MultiSatellite_Standalone.router.lo[0] displayStringTextFormat "\"%a (%i)\\n%m\""
par MultiSatellite_Standalone.router.lo[0] recordPcap false
par MultiSatellite_Standalone.router.lo[0] numPcapRecorders 0
par MultiSatellite_Standalone.router.lo[0] interfaceTableModule "\"MultiSatellite_Standalone.router.interfaceTable\""
scalar MultiSatellite_Standalone.router.lo[0] packetDropInterfaceDown:count 0
attr interpolationmode none
attr recordingmode count
attr source packetDropReasonIsInterfaceDown(packetDropped)
attr title "packet drops: interface down, count"
scalar MultiSatellite_Standalone.router.lo[0] packetDropInterfaceDown:sum(packetBytes) 0
attr interpolationmode none
attr recordingmode sum(packetBytes)
attr source packetDropReasonIsInterfaceDown(packetDropped)
attr title "packet drops: interface down, sum(packetBytes)"
scalar MultiSatellite_Standalone.router.lo[0] packetDropNoCarrier:count 0
attr interpolationmode none
attr recordingmode count
attr source packetDropReasonIsNoCarrier(packetDropped)
attr title "packet drops: no carrier, count"
scalar MultiSatellite_Standalone.router.lo[0] packetDropNoCarrier:sum(packetBytes) 0
attr interpolationmode none
attr recordingmode sum(packetBytes)
attr source packetDropReasonIsNoCarrier(packetDropped)
attr title "packet drops: no carrier, sum(packetBytes)"
par MultiSatellite_Standalone.router.ppp[0].phys$i.channel typename "\"ned.IdealChannel\""
par MultiSatellite_Standalone.router.ppp[0].ppp.phys$o.channel typename "\"ned.IdealChannel\""
par MultiSatellite_Standalone.router.ppp[0].ppp.upperLayerOut.channel typename "\"ned.IdealChannel\""
par MultiSatellite_Standalone.router.ppp[0].upperLayerIn.channel typename "\"ned.IdealChannel\""
par MultiSatellite_Standalone.router.ppp[0].queue typename "\"inet.queueing.queue.DropTailQueue\""
par MultiSatellite_Standalone.router.ppp[0].queue displayStringTextFormat "\"contains %p pk (%l) pushed %u\\npulled %o removed %r dropped %d\""
par MultiSatellite_Standalone.router.ppp[0].queue packetCapacity 10000
par MultiSatellite_Standalone.router.ppp[0].queue dataCapacity -1b
attr unit b
par MultiSatellite_Standalone.router.ppp[0].queue dropperClass "\"inet::queueing::PacketAtCollectionEndDropper\""
par MultiSatellite_Standalone.router.ppp[0].queue comparatorClass "\"\""
par MultiSatellite_Standalone.router.ppp[0].queue bufferModule "\"\""
scalar MultiSatellite_Standalone.router.ppp[0].queue queueLength:last 0
attr autoWarmupFilter false
attr interpolationmode sample-hold
attr recordingmode last
attr source "warmup(atomic(constant0(packetPushEnded) + count(packetPushStarted) - count(packetPulled) - count(packetRemoved) - count(packetDropped)))"
attr title "queue length, last"
attr unit pk
scalar MultiSatellite_Standalone.router.ppp[0].queue queueLength:max 0
attr autoWarmupFilter false
attr interpolationmode sample-hold
attr recordingmode max
attr source "warmup(atomic(constant0(packetPushEnded) + count(packetPushStarted) - count(packetPulled) - count(packetRemoved) - count(packetDropped)))"
attr title "queue length, max"
attr unit pk
scalar MultiSatellite_Standalone.router.ppp[0].queue queueLength:timeavg 0
attr autoWarmupFilter false
attr interpolationmode sample-hold
attr recordingmode timeavg
attr source "warmup(atomic(constant0(packetPushEnded) + count(packetPushStarted) - count(packetPulled) - count(packetRemoved) - count(packetDropped)))"
attr title "queue length, timeavg"
attr unit pk
scalar MultiSatellite_Standalone.router.ppp[0].queue queueBitLength:last 0
attr autoWarmupFilter false
attr interpolationmode sample-hold
attr recordingmode last
attr source "warmup(atomic(constant0(packetPushEnded) + sum(packetLength(packetPushStarted)) - sum(packetLength(packetPulled)) - sum(packetLength(packetRemoved)) - sum(packetLength(packetDropped))))"
attr title "queue bit length, last"
attr unit b
scalar MultiSatellite_Standalone.router.ppp[0].queue queueBitLength:max 0
attr autoWarmupFilter false
attr interpolationmode sample-hold
attr recordingmode max
attr source "warmup(atomic(constant0(packetPushEnded) + sum(packetLength(packetPushStarted)) - sum(packetLength(packetPulled)) - sum(packetLength(packetRemoved)) - sum(packetLength(packetDropped))))"
attr title "queue bit length, max"
attr unit b
scalar MultiSatellite_Standalone.router.ppp[0].queue queueBitLength:timeavg 0
attr autoWarmupFilter false
attr interpolationmode sample-hold
attr recordingmode timeavg
attr source "warmup(atomic(constant0(packetPushEnded) + sum(packetLength(packetPushStarted)) - sum(packetLength(packetPulled)) - sum(packetLength(packetRemoved)) - sum(packetLength(packetDropped))))"
attr title "queue bit length, timeavg"
attr unit b
statistic MultiSatellite_Standalone.router.ppp[0].queue queueingTime:histogram
field count 0
field mean nan
field stddev nan
field min nan
field max nan
field sum 0
field sqrsum 0
attr interpolationmode none
attr recordingmode histogram
attr source queueingTime(packetPulled)
attr title "queueing times"
attr unit s
bin	-inf	0
bin	0	0
bin	1	0
scalar MultiSatellite_Standalone.router.ppp[0].queue outgoingPackets:count 0
attr recordingmode count
attr source packetPulled
attr title "outgoing packets, count"
attr unit pk
scalar MultiSatellite_Standalone.router.ppp[0].queue outgoingPacketLengths:sum 0
attr interpolationmode none
attr recordingmode sum
attr source packetLength(packetPulled)
attr title "outgoing packet lengths, sum"
attr unit b
statistic MultiSatellite_Standalone.router.ppp[0].queue outgoingPacketLengths:histogram
field count 0
field mean nan
field stddev nan
field min nan
field max nan
field sum 0
field sqrsum 0
attr interpolationmode none
attr recordingmode histogram
attr source packetLength(packetPulled)
attr title "outgoing packet lengths"
attr unit b
bin	-inf	0
bin	0	0
bin	1	0
statistic MultiSatellite_Standalone.router.ppp[0].queue flowQueueingTime:histogram
field count 0
field mean nan
field stddev nan
field min nan
field max nan
field sum 0
field sqrsum 0
attr interpolationmode none
attr recordingmode histogram
attr source queueingTime(demuxFlow(packetPulled))
attr title "flow queueing times"
attr unit s
bin	-inf	0
bin	0	0
bin	1	0
scalar MultiSatellite_Standalone.router.ppp[0].queue incomingPackets:count 0
attr recordingmode count
attr source packetPushStarted
attr title "incoming packets, count"
attr unit pk
scalar MultiSatellite_Standalone.router.ppp[0].queue incomingPacketLengths:sum 0
attr interpolationmode none
attr recordingmode sum
attr source packetLength(packetPushStarted)
attr title "incoming packet lengths, sum"
attr unit b
statistic MultiSatellite_Standalone.router.ppp[0].queue incomingPacketLengths:histogram
field count 0
field mean nan
field stddev nan
field min nan
field max nan
field sum 0
field sqrsum 0
attr interpolationmode none
attr recordingmode histogram
attr source packetLength(packetPushStarted)
attr title "incoming packet lengths"
attr unit b
bin	-inf	0
bin	0	0
bin	1	0
scalar MultiSatellite_Standalone.router.ppp[0].queue droppedPacketsQueueOverflow:count 0
attr interpolationmode none
attr recordingmode count
attr source packetDropReasonIsQueueOverflow(packetDropped)
attr title "dropped packets: queue overflow, count"
attr unit pk
scalar MultiSatellite_Standalone.router.ppp[0].queue droppedPacketLengthsQueueOverflow:sum 0
attr interpolationmode none
attr recordingmode sum
attr source packetLength(packetDropReasonIsQueueOverflow(packetDropped))
attr title "dropped packet lengths: queue overflow, sum"
attr unit b
par MultiSatellite_Standalone.router.ppp[0].ppp typename "\"inet.linklayer.ppp.Ppp\""
par MultiSatellite_Standalone.router.ppp[0].ppp interfaceTableModule "\"MultiSatellite_Standalone.router.interfaceTable\""
par MultiSatellite_Standalone.router.ppp[0].ppp displayStringTextFormat "\"rate: %b\\nsent: %s, rcvd: %r\\nqueue: %q, drop: %d\""
par MultiSatellite_Standalone.router.ppp[0].ppp sendRawBytes false
par MultiSatellite_Standalone.router.ppp[0].ppp mtu 4470B
attr unit B
par MultiSatellite_Standalone.router.ppp[0].ppp stopOperationExtraTime -1s
attr unit s
par MultiSatellite_Standalone.router.ppp[0].ppp stopOperationTimeout 2s
attr unit s
scalar MultiSatellite_Standalone.router.ppp[0].ppp txPk:count 0
attr interpolationmode none
attr recordingmode count
attr source packetSentToLower
attr title "packets transmitted, count"
scalar MultiSatellite_Standalone.router.ppp[0].ppp txPk:sum(packetBytes) 0
attr interpolationmode none
attr recordingmode sum(packetBytes)
attr source packetSentToLower
attr title "packets transmitted, sum(packetBytes)"
scalar MultiSatellite_Standalone.router.ppp[0].ppp rcvdPkFromHl:count 0
attr interpolationmode none
attr recordingmode count
attr source packetReceivedFromUpper
attr title "packets received from higher layer, count"
scalar MultiSatellite_Standalone.router.ppp[0].ppp rcvdPkFromHl:sum(packetBytes) 0
attr interpolationmode none
attr recordingmode sum(packetBytes)
attr source packetReceivedFromUpper
attr title "packets received from higher layer, sum(packetBytes)"
scalar MultiSatellite_Standalone.router.ppp[0].ppp passedUpPk:count 2000
attr interpolationmode none
attr recordingmode count
attr source packetSentToUpper
attr title "packets passed to higher layer, count"
scalar MultiSatellite_Standalone.router.ppp[0].ppp passedUpPk:sum(packetBytes) 256000
attr interpolationmode none
attr recordingmode sum(packetBytes)
attr source packetSentToUpper
attr title "packets passed to higher layer, sum(packetBytes)"
scalar MultiSatellite_Standalone.router.ppp[0].ppp packetDropIncorrectlyReceived:count 0
attr interpolationmode none
attr recordingmode count
attr source packetDropReasonIsIncorrectlyReceived(packetDropped)
attr title "packet drop: incorrectly received, count"
scalar MultiSatellite_Standalone.router.ppp[0].ppp packetDropIncorrectlyReceived:sum(packetBytes) 0
attr interpolationmode none
attr recordingmode sum(packetBytes)
attr source packetDropReasonIsIncorrectlyReceived(packetDropped)
attr title "packet drop: incorrectly received, sum(packetBytes)"
scalar MultiSatellite_Standalone.router.ppp[0].ppp packetDropInterfaceDown:count 0
attr interpolationmode none
attr recordingmode count
attr source packetDropReasonIsInterfaceDown(packetDropped)
attr title "packet drop: interface down, count"
scalar MultiSatellite_Standalone.router.ppp[0].ppp packetDropInterfaceDown:sum(packetBytes) 0
attr interpolationmode none
attr recordingmode sum(packetBytes)
attr source packetDropReasonIsInterfaceDown(packetDropped)
attr title "packet drop: interface down, sum(packetBytes)"
scalar MultiSatellite_Standalone.router.ppp[0].ppp rxPkOk:count 2000
attr interpolationmode none
attr recordingmode count
attr source rxPkOk
attr title "packets received OK, count"
scalar MultiSatellite_Standalone.router.ppp[0].ppp rxPkOk:sum(packetBytes) 270000
attr interpolationmode none
attr recordingmode sum(packetBytes)
attr source rxPkOk
attr title "packets received OK, sum(packetBytes)"
scalar MultiSatellite_Standalone.router.ppp[0].ppp transmissionState:timeavg 0
attr interpolationmode sample-hold
attr recordingmode timeavg
attr source transmissionStateChanged
attr title "tx state, timeavg"
par MultiSatellite_Standalone.router.ppp[0] typename "\"inet.linklayer.ppp.PppInterface\""
par MultiSatellite_Standalone.router.ppp[0] displayStringTextFormat "\"%a (%i)\\n%m\""
par MultiSatellite_Standalone.router.ppp[0] recordPcap false
par MultiSatellite_Standalone.router.ppp[0] numPcapRecorders 0
par MultiSatellite_Standalone.router.ppp[0] interfaceTableModule "\"MultiSatellite_Standalone.router.interfaceTable\""
scalar MultiSatellite_Standalone.router.ppp[0] packetDropInterfaceDown:count 0
attr interpolationmode none
attr recordingmode count
attr source packetDropReasonIsInterfaceDown(packetDropped)
attr title "packet drops: interface down, count"
scalar MultiSatellite_Standalone.router.ppp[0] packetDropInterfaceDown:sum(packetBytes) 0
attr interpolationmode none
attr recordingmode sum(packetBytes)
attr source packetDropReasonIsInterfaceDown(packetDropped)
attr title "packet drops: interface down, sum(packetBytes)"
scalar MultiSatellite_Standalone.router.ppp[0] packetDropNoCarrier:count 0
attr interpolationmode none
attr recordingmode count
attr source packetDropReasonIsNoCarrier(packetDropped)
attr title "packet drops: no carrier, count"
scalar MultiSatellite_Standalone.router.ppp[0] packetDropNoCarrier:sum(packetBytes) 0
attr interpolationmode none
attr recordingmode sum(packetBytes)
attr source packetDropReasonIsNoCarrier(packetDropped)
attr title "packet drops: no carrier, sum(packetBytes)"
par MultiSatellite_Standalone.router.ppp[1].phys$i.channel typename "\"ned.IdealChannel\""
par MultiSatellite_Standalone.router.ppp[1].ppp.phys$o.channel typename "\"ned.IdealChannel\""
par MultiSatellite_Standalone.router.ppp[1].ppp.upperLayerOut.channel typename "\"ned.IdealChannel\""
par MultiSatellite_Standalone.router.ppp[1].upperLayerIn.channel typename "\"ned.IdealChannel\""
par MultiSatellite_Standalone.router.ppp[1].queue typename "\"inet.queueing.queue.DropTailQueue\""
par MultiSatellite_Standalone.router.ppp[1].queue displayStringTextFormat "\"contains %p pk (%l) pushed %u\\npulled %o removed %r dropped %d\""
par MultiSatellite_Standalone.router.ppp[1].queue packetCapacity 10000
par MultiSatellite_Standalone.router.ppp[1].queue dataCapacity -1b
attr unit b
par MultiSatellite_Standalone.router.ppp[1].queue dropperClass "\"inet::queueing::PacketAtCollectionEndDropper\""
par MultiSatellite_Standalone.router.ppp[1].queue comparatorClass "\"\""
par MultiSatellite_Standalone.router.ppp[1].queue bufferModule "\"\""
scalar MultiSatellite_Standalone.router.ppp[1].queue queueLength:last 0
attr autoWarmupFilter false
attr interpolationmode sample-hold
attr recordingmode last
attr source "warmup(atomic(constant0(packetPushEnded) + count(packetPushStarted) - count(packetPulled) - count(packetRemoved) - count(packetDropped)))"
attr title "queue length, last"
attr unit pk
scalar MultiSatellite_Standalone.router.ppp[1].queue queueLength:max 0
attr autoWarmupFilter false
attr interpolationmode sample-hold
attr recordingmode max
attr source "warmup(atomic(constant0(packetPushEnded) + count(packetPushStarted) - count(packetPulled) - count(packetRemoved) - count(packetDropped)))"
attr title "queue length, max"
attr unit pk
scalar MultiSatellite_Standalone.router.ppp[1].queue queueLength:timeavg 0
attr autoWarmupFilter false
attr interpolationmode sample-hold
attr recordingmode timeavg
attr source "warmup(atomic(constant0(packetPushEnded) + count(packetPushStarted) - count(packetPulled) - count(packetRemoved) - count(packetDropped)))"
attr title "queue length, timeavg"
attr unit pk
scalar MultiSatellite_Standalone.router.ppp[1].queue queueBitLength:last 0
attr autoWarmupFilter false
attr interpolationmode sample-hold
attr recordingmode last
attr source "warmup(atomic(constant0(packetPushEnded) + sum(packetLength(packetPushStarted)) - sum(packetLength(packetPulled)) - sum(packetLength(packetRemoved)) - sum(packetLength(packetDropped))))"
attr title "queue bit length, last"
attr unit b
scalar MultiSatellite_Standalone.router.ppp[1].queue queueBitLength:max 0
attr autoWarmupFilter false
attr interpolationmode sample-hold
attr recordingmode max
attr source "warmup(atomic(constant0(packetPushEnded) + sum(packetLength(packetPushStarted)) - sum(packetLength(packetPulled)) - sum(packetLength(packetRemoved)) - sum(packetLength(packetDropped))))"
attr title "queue bit length, max"
attr unit b
scalar MultiSatellite_Standalone.router.ppp[1].queue queueBitLength:timeavg 0
attr autoWarmupFilter false
attr interpolationmode sample-hold
attr recordingmode timeavg
attr source "warmup(atomic(constant0(packetPushEnded) + sum(packetLength(packetPushStarted)) - sum(packetLength(packetPulled)) - sum(packetLength(packetRemoved)) - sum(packetLength(packetDropped))))"
attr title "queue bit length, timeavg"
attr unit b
statistic MultiSatellite_Standalone.router.ppp[1].queue queueingTime:histogram
field count 2000
field mean 0
field stddev 0
field min 0
field max 0
field sum 0
field sqrsum 0
attr interpolationmode none
attr recordingmode histogram
attr source queueingTime(packetPulled)
attr title "queueing times"
attr unit s
bin	-inf	0
bin	-0.5	0
bin	-0.48	0
bin	-0.46	0
bin	-0.44	0
bin	-0.42	0
bin	-0.4	0
bin	-0.38	0
bin	-0.36	0
bin	-0.34	0
bin	-0.32	0
bin	-0.3	0
bin	-0.28	0
bin	-0.26	0
bin	-0.24	0
bin	-0.22	0
bin	-0.2	0
bin	-0.18	0
bin	-0.16	0
bin	-0.14	0
bin	-0.12	0
bin	-0.1	0
bin	-0.08	0
bin	-0.06	0
bin	-0.04	0
bin	-0.02	0
bin	0	2000
bin	0.02	0
bin	0.04	0
bin	0.06	0
bin	0.08	0
bin	0.1	0
bin	0.12	0
bin	0.14	0
bin	0.16	0
bin	0.18	0
bin	0.2	0
bin	0.22	0
bin	0.24	0
bin	0.26	0
bin	0.28	0
bin	0.3	0
bin	0.32	0
bin	0.34	0
bin	0.36	0
bin	0.38	0
bin	0.4	0
bin	0.42	0
bin	0.44	0
bin	0.46	0
bin	0.48	0
bin	0.5	0
scalar MultiSatellite_Standalone.router.ppp[1].queue outgoingPackets:count 2000
attr recordingmode count
attr source packetPulled
attr title "outgoing packets, count"
attr unit pk
scalar MultiSatellite_Standalone.router.ppp[1].queue outgoingPacketLengths:sum 2048000
attr interpolationmode none
attr recordingmode sum
attr source packetLength(packetPulled)
attr title "outgoing packet lengths, sum"
attr unit b
statistic MultiSatellite_Standalone.router.ppp[1].queue outgoingPacketLengths:histogram
field count 2000
field mean 1024
field stddev 0
field min 1024
field max 1024
field sum 2048000
field sqrsum 2097152000
attr interpolationmode none
attr recordingmode histogram
attr source packetLength(packetPulled)
attr title "outgoing packet lengths"
attr unit b
bin	-inf	0
bin	1023	0
bin	1024	2000
bin	1025	0
statistic MultiSatellite_Standalone.router.ppp[1].queue flowQueueingTime:histogram
field count 0
field mean nan
field stddev nan
field min nan
field max nan
field sum 0
field sqrsum 0
attr interpolationmode none
attr recordingmode histogram
attr source queueingTime(demuxFlow(packetPulled))
attr title "flow queueing times"
attr unit s
bin	-inf	0
bin	0	0
bin	1	0
scalar MultiSatellite_Standalone.router.ppp[1].queue incomingPackets:count 2000
attr recordingmode count
attr source packetPushStarted
attr title "incoming packets, count"
attr unit pk
scalar MultiSatellite_Standalone.router.ppp[1].queue incomingPacketLengths:sum 2048000
attr interpolationmode none
attr recordingmode sum
attr source packetLength(packetPushStarted)
attr title "incoming packet lengths, sum"
attr unit b
statistic MultiSatellite_Standalone.router.ppp[1].queue incomingPacketLengths:histogram
field count 2000
field mean 1024
field stddev 0
field min 1024
field max 1024
field sum 2048000
field sqrsum 2097152000
attr interpolationmode none
attr recordingmode histogram
attr source packetLength(packetPushStarted)
attr title "incoming packet lengths"
attr unit b
bin	-inf	0
bin	1023	0
bin	1024	2000
bin	1025	0
scalar MultiSatellite_Standalone.router.ppp[1].queue droppedPacketsQueueOverflow:count 0
attr interpolationmode none
attr recordingmode count
attr source packetDropReasonIsQueueOverflow(packetDropped)
attr title "dropped packets: queue overflow, count"
attr unit pk
scalar MultiSatellite_Standalone.router.ppp[1].queue droppedPacketLengthsQueueOverflow:sum 0
attr interpolationmode none
attr recordingmode sum
attr source packetLength(packetDropReasonIsQueueOverflow(packetDropped))
attr title "dropped packet lengths: queue overflow, sum"
attr unit b
par MultiSatellite_Standalone.router.ppp[1].ppp typename "\"inet.linklayer.ppp.Ppp\""
par MultiSatellite_Standalone.router.ppp[1].ppp interfaceTableModule "\"MultiSatellite_Standalone.router.interfaceTable\""
par MultiSatellite_Standalone.router.ppp[1].ppp displayStringTextFormat "\"rate: %b\\nsent: %s, rcvd: %r\\nqueue: %q, drop: %d\""
par MultiSatellite_Standalone.router.ppp[1].ppp sendRawBytes false
par MultiSatellite_Standalone.router.ppp[1].ppp mtu 4470B
attr unit B
par MultiSatellite_Standalone.router.ppp[1].ppp stopOperationExtraTime -1s
attr unit s
par MultiSatellite_Standalone.router.ppp[1].ppp stopOperationTimeout 2s
attr unit s
scalar MultiSatellite_Standalone.router.ppp[1].ppp txPk:count 2000
attr interpolationmode none
attr recordingmode count
attr source packetSentToLower
attr title "packets transmitted, count"
scalar MultiSatellite_Standalone.router.ppp[1].ppp txPk:sum(packetBytes) 270000
attr interpolationmode none
attr recordingmode sum(packetBytes)
attr source packetSentToLower
attr title "packets transmitted, sum(packetBytes)"
scalar MultiSatellite_Standalone.router.ppp[1].ppp rcvdPkFromHl:count 2000
attr interpolationmode none
attr recordingmode count
attr source packetReceivedFromUpper
attr title "packets received from higher layer, count"
scalar MultiSatellite_Standalone.router.ppp[1].ppp rcvdPkFromHl:sum(packetBytes) 256000
attr interpolationmode none
attr recordingmode sum(packetBytes)
attr source packetReceivedFromUpper
attr title "packets received from higher layer, sum(packetBytes)"
scalar MultiSatellite_Standalone.router.ppp[1].ppp passedUpPk:count 0
attr interpolationmode none
attr recordingmode count
attr source packetSentToUpper
attr title "packets passed to higher layer, count"
scalar MultiSatellite_Standalone.router.ppp[1].ppp passedUpPk:sum(packetBytes) 0
attr interpolationmode none
attr recordingmode sum(packetBytes)
attr source packetSentToUpper
attr title "packets passed to higher layer, sum(packetBytes)"
scalar MultiSatellite_Standalone.router.ppp[1].ppp packetDropIncorrectlyReceived:count 0
attr interpolationmode none
attr recordingmode count
attr source packetDropReasonIsIncorrectlyReceived(packetDropped)
attr title "packet drop: incorrectly received, count"
scalar MultiSatellite_Standalone.router.ppp[1].ppp packetDropIncorrectlyReceived:sum(packetBytes) 0
attr interpolationmode none
attr recordingmode sum(packetBytes)
attr source packetDropReasonIsIncorrectlyReceived(packetDropped)
attr title "packet drop: incorrectly received, sum(packetBytes)"
scalar MultiSatellite_Standalone.router.ppp[1].ppp packetDropInterfaceDown:count 0
attr interpolationmode none
attr recordingmode count
attr source packetDropReasonIsInterfaceDown(packetDropped)
attr title "packet drop: interface down, count"
scalar MultiSatellite_Standalone.router.ppp[1].ppp packetDropInterfaceDown:sum(packetBytes) 0
attr interpolationmode none
attr recordingmode sum(packetBytes)
attr source packetDropReasonIsInterfaceDown(packetDropped)
attr title "packet drop: interface down, sum(packetBytes)"
scalar MultiSatellite_Standalone.router.ppp[1].ppp rxPkOk:count 0
attr interpolationmode none
attr recordingmode count
attr source rxPkOk
attr title "packets received OK, count"
scalar MultiSatellite_Standalone.router.ppp[1].ppp rxPkOk:sum(packetBytes) 0
attr interpolationmode none
attr recordingmode sum(packetBytes)
attr source rxPkOk
attr title "packets received OK, sum(packetBytes)"
scalar MultiSatellite_Standalone.router.ppp[1].ppp transmissionState:timeavg 5.3999999999999e-06
attr interpolationmode sample-hold
attr recordingmode timeavg
attr source transmissionStateChanged
attr title "tx state, timeavg"
par MultiSatellite_Standalone.router.ppp[1] typename "\"inet.linklayer.ppp.PppInterface\""
par MultiSatellite_Standalone.router.ppp[1] displayStringTextFormat "\"%a (%i)\\n%m\""
par MultiSatellite_Standalone.router.ppp[1] recordPcap false
par MultiSatellite_Standalone.router.ppp[1] numPcapRecorders 0
par MultiSatellite_Standalone.router.ppp[1] interfaceTableModule "\"MultiSatellite_Standalone.router.interfaceTable\""
scalar MultiSatellite_Standalone.router.ppp[1] packetDropInterfaceDown:count 0
attr interpolationmode none
attr recordingmode count
attr source packetDropReasonIsInterfaceDown(packetDropped)
attr title "packet drops: interface down, count"
scalar MultiSatellite_Standalone.router.ppp[1] packetDropInterfaceDown:sum(packetBytes) 0
attr interpolationmode none
attr recordingmode sum(packetBytes)
attr source packetDropReasonIsInterfaceDown(packetDropped)
attr title "packet drops: interface down, sum(packetBytes)"
scalar MultiSatellite_Standalone.router.ppp[1] packetDropNoCarrier:count 0
attr interpolationmode none
attr recordingmode count
attr source packetDropReasonIsNoCarrier(packetDropped)
attr title "packet drops: no carrier, count"
scalar MultiSatellite_Standalone.router.ppp[1] packetDropNoCarrier:sum(packetBytes) 0
attr interpolationmode none
attr recordingmode sum(packetBytes)
attr source packetDropReasonIsNoCarrier(packetDropped)
attr title "packet drops: no carrier, sum(packetBytes)"
par MultiSatellite_Standalone.router.ipv4.transportIn.channel typename "\"ned.IdealChannel\""
par MultiSatellite_Standalone.router.ipv4.up.out[0].channel typename "\"ned.IdealChannel\""
par MultiSatellite_Standalone.router.ipv4.lp.out[2].channel typename "\"ned.IdealChannel\""
par MultiSatellite_Standalone.router.ipv4.ifIn.channel typename "\"ned.IdealChannel\""
par MultiSatellite_Standalone.router.ipv4.configurator typename "\"inet.networklayer.configurator.ipv4.Ipv4NodeConfigurator\""
par MultiSatellite_Standalone.router.ipv4.configurator interfaceTableModule "\"MultiSatellite_Standalone.router.interfaceTable\""
par MultiSatellite_Standalone.router.ipv4.configurator routingTableModule "\"MultiSatellite_Standalone.router.ipv4.routingTable\""
par MultiSatellite_Standalone.router.ipv4.configurator networkConfiguratorModule "\"configurator\""
par MultiSatellite_Standalone.router.ipv4.configurator configureRoutingTable true
par MultiSatellite_Standalone.router.ipv4.routingTable typename "\"inet.networklayer.ipv4.Ipv4RoutingTable\""
par MultiSatellite_Standalone.router.ipv4.routingTable interfaceTableModule "\"MultiSatellite_Standalone.router.interfaceTable\""
par MultiSatellite_Standalone.router.ipv4.routingTable routerId "\"auto\""
par MultiSatellite_Standalone.router.ipv4.routingTable netmaskRoutes "\"*\""
par MultiSatellite_Standalone.router.ipv4.routingTable forwarding true
par MultiSatellite_Standalone.router.ipv4.routingTable multicastForwarding false
par MultiSatellite_Standalone.router.ipv4.routingTable useAdminDist false
par MultiSatellite_Standalone.router.ipv4.routingTable routingFile "\"\""
par MultiSatellite_Standalone.router.ipv4.natTable typename "\"inet.networklayer.ipv4.Ipv4NatTable\""
par MultiSatellite_Standalone.router.ipv4.natTable networkProtocolModule "\"^.ip\""
par MultiSatellite_Standalone.router.ipv4.natTable config "<config/> at content:1"
par MultiSatellite_Standalone.router.ipv4.up typename "\"inet.common.MessageDispatcher\""
par MultiSatellite_Standalone.router.ipv4.up displayStringTextFormat "\"processed %p pk (%l)\""
par MultiSatellite_Standalone.router.ipv4.up forwardServiceRegistration true
par MultiSatellite_Standalone.router.ipv4.up forwardProtocolRegistration true
par MultiSatellite_Standalone.router.ipv4.igmp typename "\"inet.networklayer.ipv4.Igmpv2\""
par MultiSatellite_Standalone.router.ipv4.igmp interfaceTableModule "\"MultiSatellite_Standalone.router.interfaceTable\""
[...]
par MultiSatellite_Standalone.ue[0].encap fcsMode "\"declared\""
attr enum declared,computed
par MultiSatellite_Standalone.ue[0].encap stopOperationExtraTime -1s
attr unit s
par MultiSatellite_Standalone.ue[0].encap stopOperationTimeout 2s
attr unit s
scalar MultiSatellite_Standalone.ue[0].encap decapPk:count 0
attr interpolationmode none
attr recordingmode count
attr source decapPk
attr title "packets decapsulated, count"
scalar MultiSatellite_Standalone.ue[0].encap decapPk:sum(packetBytes) 0
attr interpolationmode none
attr recordingmode sum(packetBytes)
attr source decapPk
attr title "packets decapsulated, sum(packetBytes)"
scalar MultiSatellite_Standalone.ue[0].encap encapPk:count 0
attr interpolationmode none
attr recordingmode count
attr source encapPk
attr title "packets encapsulated, count"
scalar MultiSatellite_Standalone.ue[0].encap encapPk:sum(packetBytes) 0
attr interpolationmode none
attr recordingmode sum(packetBytes)
attr source encapPk
attr title "packets encapsulated, sum(packetBytes)"
scalar MultiSatellite_Standalone.ue[0].encap pauseSent:count 0
attr recordingmode count
attr title "pause sent, count"
scalar MultiSatellite_Standalone.ue[0].encap pauseSent:sum 0
attr recordingmode sum
attr title "pause sent, sum"
par MultiSatellite_Standalone.ue[0].ipv4.transportIn.channel typename "\"ned.IdealChannel\""
par MultiSatellite_Standalone.ue[0].ipv4.up.out[0].channel typename "\"ned.IdealChannel\""
par MultiSatellite_Standalone.ue[0].ipv4.lp.out[2].channel typename "\"ned.IdealChannel\""
par MultiSatellite_Standalone.ue[0].ipv4.ifIn.channel typename "\"ned.IdealChannel\""
par MultiSatellite_Standalone.ue[0].ipv4.configurator typename "\"inet.networklayer.configurator.ipv4.Ipv4NodeConfigurator\""
par MultiSatellite_Standalone.ue[0].ipv4.configurator interfaceTableModule "\"MultiSatellite_Standalone.ue[0].interfaceTable\""
par MultiSatellite_Standalone.ue[0].ipv4.configurator routingTableModule "\"MultiSatellite_Standalone.ue[0].ipv4.routingTable\""
par MultiSatellite_Standalone.ue[0].ipv4.configurator networkConfiguratorModule "\"configurator\""
par MultiSatellite_Standalone.ue[0].ipv4.configurator configureRoutingTable true
par MultiSatellite_Standalone.ue[0].ipv4.routingTable typename "\"inet.networklayer.ipv4.Ipv4RoutingTable\""
par MultiSatellite_Standalone.ue[0].ipv4.routingTable interfaceTableModule "\"MultiSatellite_Standalone.ue[0].interfaceTable\""
par MultiSatellite_Standalone.ue[0].ipv4.routingTable routerId "\"auto\""
par MultiSatellite_Standalone.ue[0].ipv4.routingTable netmaskRoutes "\"*\""
par MultiSatellite_Standalone.ue[0].ipv4.routingTable forwarding false
par MultiSatellite_Standalone.ue[0].ipv4.routingTable multicastForwarding false
par MultiSatellite_Standalone.ue[0].ipv4.routingTable useAdminDist false
par MultiSatellite_Standalone.ue[0].ipv4.routingTable routingFile "\"\""
par MultiSatellite_Standalone.ue[0].ipv4.natTable typename "\"inet.networklayer.ipv4.Ipv4NatTable\""
par MultiSatellite_Standalone.ue[0].ipv4.natTable networkProtocolModule "\"^.ip\""
par MultiSatellite_Standalone.ue[0].ipv4.natTable config "<config/> at content:1"
par MultiSatellite_Standalone.ue[0].ipv4.up typename "\"inet.common.MessageDispatcher\""
par MultiSatellite_Standalone.ue[0].ipv4.up displayStringTextFormat "\"processed %p pk (%l)\""
par MultiSatellite_Standalone.ue[0].ipv4.up forwardServiceRegistration true
par MultiSatellite_Standalone.ue[0].ipv4.up forwardProtocolRegistration true
par MultiSatellite_Standalone.ue[0].ipv4.igmp typename "\"inet.networklayer.ipv4.Igmpv2\""
par MultiSatellite_Standalone.ue[0].ipv4.igmp interfaceTableModule "\"MultiSatellite_Standalone.ue[0].interfaceTable\""
par MultiSatellite_Standalone.ue[0].ipv4.igmp routingTableModule "\"MultiSatellite_Standalone.ue[0].ipv4.routingTable\""
par MultiSatellite_Standalone.ue[0].ipv4.igmp crcMode "\"declared\""
attr enum declared,computed
par MultiSatellite_Standalone.ue[0].ipv4.igmp enabled true
par MultiSatellite_Standalone.ue[0].ipv4.igmp robustnessVariable 2
par MultiSatellite_Standalone.ue[0].ipv4.igmp queryInterval 125s
attr unit s
par MultiSatellite_Standalone.ue[0].ipv4.igmp queryResponseInterval 10s
attr unit s
par MultiSatellite_Standalone.ue[0].ipv4.igmp groupMembershipInterval 260s
attr unit s
par MultiSatellite_Standalone.ue[0].ipv4.igmp otherQuerierPresentInterval 255s
attr unit s
par MultiSatellite_Standalone.ue[0].ipv4.igmp startupQueryInterval 31.25s
attr unit s
par MultiSatellite_Standalone.ue[0].ipv4.igmp startupQueryCount 2
par MultiSatellite_Standalone.ue[0].ipv4.igmp lastMemberQueryInterval 1s
attr unit s
par MultiSatellite_Standalone.ue[0].ipv4.igmp lastMemberQueryCount 2
par MultiSatellite_Standalone.ue[0].ipv4.igmp unsolicitedReportInterval 10s
attr unit s
par MultiSatellite_Standalone.ue[0].ipv4.icmp typename "\"inet.networklayer.ipv4.Icmp\""
par MultiSatellite_Standalone.ue[0].ipv4.icmp interfaceTableModule "\"MultiSatellite_Standalone.ue[0].interfaceTable\""
par MultiSatellite_Standalone.ue[0].ipv4.icmp routingTableModule "\"MultiSatellite_Standalone.ue[0].ipv4.routingTable\""
par MultiSatellite_Standalone.ue[0].ipv4.icmp crcMode "\"declared\""
attr enum declared,computed
attr mutable ""
par MultiSatellite_Standalone.ue[0].ipv4.icmp quoteLength 8B
attr mutable ""
attr unit B
par MultiSatellite_Standalone.ue[0].ipv4.mp typename "\"inet.common.MessageDispatcher\""
par MultiSatellite_Standalone.ue[0].ipv4.mp displayStringTextFormat "\"processed %p pk (%l)\""
par MultiSatellite_Standalone.ue[0].ipv4.mp forwardServiceRegistration true
par MultiSatellite_Standalone.ue[0].ipv4.mp forwardProtocolRegistration true
par MultiSatellite_Standalone.ue[0].ipv4.ip typename "\"inet.networklayer.ipv4.Ipv4\""
par MultiSatellite_Standalone.ue[0].ipv4.ip interfaceTableModule "\"MultiSatellite_Standalone.ue[0].interfaceTable\""
par MultiSatellite_Standalone.ue[0].ipv4.ip routingTableModule "\"MultiSatellite_Standalone.ue[0].ipv4.routingTable\""
par MultiSatellite_Standalone.ue[0].ipv4.ip arpModule "\"MultiSatellite_Standalone.ue[0].ipv4.arp\""
par MultiSatellite_Standalone.ue[0].ipv4.ip icmpModule "\"MultiSatellite_Standalone.ue[0].ipv4.icmp\""
par MultiSatellite_Standalone.ue[0].ipv4.ip crcMode "\"declared\""
attr enum declared,computed
par MultiSatellite_Standalone.ue[0].ipv4.ip timeToLive 32
par MultiSatellite_Standalone.ue[0].ipv4.ip multicastTimeToLive 32
par MultiSatellite_Standalone.ue[0].ipv4.ip fragmentTimeout 60s
attr unit s
par MultiSatellite_Standalone.ue[0].ipv4.ip limitedBroadcast false
par MultiSatellite_Standalone.ue[0].ipv4.ip directBroadcastInterfaces "\"\""
scalar MultiSatellite_Standalone.ue[0].ipv4.ip packetDropAddressResolutionFailed:count 0
attr interpolationmode none
attr recordingmode count
attr source packetDropReasonIsAddressResolutionFailed(packetDropped)
attr title "packet drop: address resolution failed, count"
scalar MultiSatellite_Standalone.ue[0].ipv4.ip packetDropAddressResolutionFailed:sum(packetBytes) 0
attr interpolationmode none
attr recordingmode sum(packetBytes)
attr source packetDropReasonIsAddressResolutionFailed(packetDropped)
attr title "packet drop: address resolution failed, sum(packetBytes)"
scalar MultiSatellite_Standalone.ue[0].ipv4.ip packetDropHopLimitReached:count 0
attr interpolationmode none
attr recordingmode count
attr source packetDropReasonIsHopLimitReached(packetDropped)
attr title "packet drop: hop limit reached, count"
scalar MultiSatellite_Standalone.ue[0].ipv4.ip packetDropHopLimitReached:sum(packetBytes) 0
attr interpolationmode none
attr recordingmode sum(packetBytes)
attr source packetDropReasonIsHopLimitReached(packetDropped)
attr title "packet drop: hop limit reached, sum(packetBytes)"
scalar MultiSatellite_Standalone.ue[0].ipv4.ip packetDropForwardingDisabled:count 0
attr interpolationmode none
attr recordingmode count
attr source packetDropReasonIsForwardingDisabled(packetDropped)
attr title "packet drop: forwarding disabled, count"
scalar MultiSatellite_Standalone.ue[0].ipv4.ip packetDropForwardingDisabled:sum(packetBytes) 0
attr interpolationmode none
attr recordingmode sum(packetBytes)
attr source packetDropReasonIsForwardingDisabled(packetDropped)
attr title "packet drop: forwarding disabled, sum(packetBytes)"
scalar MultiSatellite_Standalone.ue[0].ipv4.ip packetDropNoInterfaceFound:count 0
attr interpolationmode none
attr recordingmode count
attr source packetDropReasonIsNoInterfaceFound(packetDropped)
attr title "packet drop: no interface found, count"
scalar MultiSatellite_Standalone.ue[0].ipv4.ip packetDropNoInterfaceFound:sum(packetBytes) 0
attr interpolationmode none
attr recordingmode sum(packetBytes)
attr source packetDropReasonIsNoInterfaceFound(packetDropped)
attr title "packet drop: no interface found, sum(packetBytes)"
scalar MultiSatellite_Standalone.ue[0].ipv4.ip packetDropNoRouteFound:count 0
attr interpolationmode none
attr recordingmode count
attr source packetDropReasonIsNoRouteFound(packetDropped)
attr title "packet drop: no route found, count"
scalar MultiSatellite_Standalone.ue[0].ipv4.ip packetDropNoRouteFound:sum(packetBytes) 0
attr interpolationmode none
attr recordingmode sum(packetBytes)
attr source packetDropReasonIsNoRouteFound(packetDropped)
attr title "packet drop: no route found, sum(packetBytes)"
scalar MultiSatellite_Standalone.ue[0].ipv4.ip packetDropUndefined:count 0
attr interpolationmode none
attr recordingmode count
attr source packetDropReasonIsUndefined(packetDropped)
attr title "packet drop: undefined, count"
scalar MultiSatellite_Standalone.ue[0].ipv4.ip packetDropUndefined:sum(packetBytes) 0
attr interpolationmode none
attr recordingmode sum(packetBytes)
attr source packetDropReasonIsUndefined(packetDropped)
attr title "packet drop: undefined, sum(packetBytes)"
par MultiSatellite_Standalone.ue[0].ipv4.arp typename "\"inet.networklayer.arp.ipv4.Arp\""
par MultiSatellite_Standalone.ue[0].ipv4.arp interfaceTableModule "\"MultiSatellite_Standalone.ue[0].interfaceTable\""
par MultiSatellite_Standalone.ue[0].ipv4.arp routingTableModule "\"MultiSatellite_Standalone.ue[0].ipv4.routingTable\""
par MultiSatellite_Standalone.ue[0].ipv4.arp retryTimeout 1s
attr unit s
par MultiSatellite_Standalone.ue[0].ipv4.arp retryCount 3
par MultiSatellite_Standalone.ue[0].ipv4.arp cacheTimeout 120s
attr unit s
par MultiSatellite_Standalone.ue[0].ipv4.arp proxyArpInterfaces "\"*\""
scalar MultiSatellite_Standalone.ue[0].ipv4.arp arpReplySent:count 0
attr recordingmode count
attr source arpReplySent
attr title "ARP replies sent, count"
scalar MultiSatellite_Standalone.ue[0].ipv4.arp arpReplySent:sum(packetBytes) 0
attr recordingmode sum(packetBytes)
attr source arpReplySent
attr title "ARP replies sent, sum(packetBytes)"
scalar MultiSatellite_Standalone.ue[0].ipv4.arp arpRequestSent:count 0
attr recordingmode count
attr source arpRequestSent
attr title "ARP request sent, count"
scalar MultiSatellite_Standalone.ue[0].ipv4.arp arpRequestSent:sum(packetBytes) 0
attr recordingmode sum(packetBytes)
attr source arpRequestSent
attr title "ARP request sent, sum(packetBytes)"
scalar MultiSatellite_Standalone.ue[0].ipv4.arp arpResolutionFailed:count 0
attr recordingmode count
attr title "ARP failed resolutions, count"
scalar MultiSatellite_Standalone.ue[0].ipv4.arp arpResolutionCompleted:count 0
attr recordingmode count
attr title "ARP completed resolutions, count"
scalar MultiSatellite_Standalone.ue[0].ipv4.arp arpResolutionInitiated:count 0
attr recordingmode count
attr title "ARP initiated resolutions, count"
par MultiSatellite_Standalone.ue[0].ipv4.lp typename "\"inet.common.MessageDispatcher\""
par MultiSatellite_Standalone.ue[0].ipv4.lp displayStringTextFormat "\"processed %p pk (%l)\""
par MultiSatellite_Standalone.ue[0].ipv4.lp forwardServiceRegistration true
par MultiSatellite_Standalone.ue[0].ipv4.lp forwardProtocolRegistration true
par MultiSatellite_Standalone.ue[0].ipv4 typename "\"inet.networklayer.ipv4.Ipv4NetworkLayer\""
par MultiSatellite_Standalone.ue[0].ipv4 forwarding false
par MultiSatellite_Standalone.ue[0].ipv4 multicastForwarding false
par MultiSatellite_Standalone.ue[0].ipv4 interfaceTableModule "\"MultiSatellite_Standalone.ue[0].interfaceTable\""
par MultiSatellite_Standalone.ue[0].ipv4 displayStringTextFormat "\"%i\""
par MultiSatellite_Standalone.ue[0].udp typename "\"inet.transportlayer.udp.Udp\""
par MultiSatellite_Standalone.ue[0].udp interfaceTableModule "\"MultiSatellite_Standalone.ue[0].interfaceTable\""
par MultiSatellite_Standalone.ue[0].udp icmpModule "\"^.ipv4.icmp\""
par MultiSatellite_Standalone.ue[0].udp icmpv6Module "\"^.ipv6.icmpv6\""
par MultiSatellite_Standalone.ue[0].udp crcMode "\"declared\""
attr enum disabled,declared,computed
par MultiSatellite_Standalone.ue[0].udp defaultMulticastLoop true
scalar MultiSatellite_Standalone.ue[0].udp packetReceived:count 1999
attr interpolationmode none
attr recordingmode count
attr source packetReceived
attr title "packets received, count"
scalar MultiSatellite_Standalone.ue[0].udp packetReceived:sum(packetBytes) 215892
attr interpolationmode none
attr recordingmode sum(packetBytes)
attr source packetReceived
attr title "packets received, sum(packetBytes)"
scalar MultiSatellite_Standalone.ue[0].udp packetSent:count 0
attr interpolationmode none
attr recordingmode count
attr source packetSent
attr title "packets sent, count"
scalar MultiSatellite_Standalone.ue[0].udp packetSent:sum(packetBytes) 0
attr interpolationmode none
attr recordingmode sum(packetBytes)
attr source packetSent
attr title "packets sent, sum(packetBytes)"
scalar MultiSatellite_Standalone.ue[0].udp passedUpPk:count 1999
attr interpolationmode none
attr recordingmode count
attr source packetSentToUpper
attr title "packets passed up, count"
scalar MultiSatellite_Standalone.ue[0].udp droppedPkWrongPort:count 0
attr interpolationmode none
attr recordingmode count
attr source packetDropReasonIsNoPortFound(packetDropped)
attr title "packets dropped (wrong port), count"
scalar MultiSatellite_Standalone.ue[0].udp droppedPkBadChecksum:count 0
attr interpolationmode none
attr recordingmode count
attr source packetDropReasonIsIncorrectlyReceived(packetDropped)
attr title "packets dropped (checksum error), count"
par MultiSatellite_Standalone.ue[0].tcp typename "\"inet.transportlayer.tcp.Tcp\""
par MultiSatellite_Standalone.ue[0].tcp crcMode "\"declared\""
attr enum declared,computed
par MultiSatellite_Standalone.ue[0].tcp advertisedWindow 7504
par MultiSatellite_Standalone.ue[0].tcp delayedAcksEnabled false
par MultiSatellite_Standalone.ue[0].tcp nagleEnabled true
par MultiSatellite_Standalone.ue[0].tcp limitedTransmitEnabled false
par MultiSatellite_Standalone.ue[0].tcp increasedIWEnabled false
par MultiSatellite_Standalone.ue[0].tcp sackSupport false
par MultiSatellite_Standalone.ue[0].tcp windowScalingSupport false
par MultiSatellite_Standalone.ue[0].tcp windowScalingFactor -1
par MultiSatellite_Standalone.ue[0].tcp timestampSupport false
par MultiSatellite_Standalone.ue[0].tcp mss 536
par MultiSatellite_Standalone.ue[0].tcp msl 120s
attr unit s
par MultiSatellite_Standalone.ue[0].tcp tcpAlgorithmClass "\"TcpReno\""
attr enum TcpVegas,TcpWestwood,TcpNewReno,TcpReno,TcpTahoe,TcpNoCongestionControl
par MultiSatellite_Standalone.ue[0].tcp useDataNotification false
par MultiSatellite_Standalone.ue[0].tcp dupthresh 3
par MultiSatellite_Standalone.ue[0].tcp initialSsthresh 4294967295
par MultiSatellite_Standalone.ue[0].tcp stopOperationExtraTime 0s
attr unit s
par MultiSatellite_Standalone.ue[0].tcp stopOperationTimeout 2s
attr unit s
par MultiSatellite_Standalone.ue[0].tcp ecnWillingness false
par MultiSatellite_Standalone.ue[0].tcp dctcpGamma 0.0625
par MultiSatellite_Standalone.ue[0].app[0] typename "\"simu5g.apps.cbr.CbrReceiver\""
par MultiSatellite_Standalone.ue[0].app[0] localPort 3000
scalar MultiSatellite_Standalone.ue[0].app[0] cbrReceivedBytes:timeavg 100
attr recordingmode timeavg
attr source cbrReceivedBytesSignal
attr title "Bytes received at the application level, timeavg"
attr unit Bps
scalar MultiSatellite_Standalone.ue[0].app[0] cbrReceivedBytes:mean 100
attr recordingmode mean
attr source cbrReceivedBytesSignal
attr title "Bytes received at the application level, mean"
attr unit Bps
scalar MultiSatellite_Standalone.ue[0].app[0] cbrReceivedBytes:sum 199900
attr recordingmode sum
attr source cbrReceivedBytesSignal
attr title "Bytes received at the application level, sum"
attr unit Bps
scalar MultiSatellite_Standalone.ue[0].app[0] cbrReceivedThroughtput:timeavg nan
attr recordingmode timeavg
attr source cbrReceivedThroughtputSignal
attr title "Throughput received at the application level, timeavg"
attr unit Bps
scalar MultiSatellite_Standalone.ue[0].app[0] cbrReceivedThroughtput:mean 4997.5
attr recordingmode mean
attr source cbrReceivedThroughtputSignal
attr title "Throughput received at the application level, mean"
attr unit Bps
scalar MultiSatellite_Standalone.ue[0].app[0] cbrReceivedThroughtput:sum 4997.5
attr recordingmode sum
attr source cbrReceivedThroughtputSignal
attr title "Throughput received at the application level, sum"
attr unit Bps
scalar MultiSatellite_Standalone.ue[0].app[0] cbrJitter:mean nan
attr recordingmode mean
attr source cbrJitterSignal
attr title "Cbr Playout Loss, mean"
attr unit s
scalar MultiSatellite_Standalone.ue[0].app[0] cbrFrameDelay:mean 0.004922707053269
attr recordingmode mean
attr source cbrFrameDelaySignal
attr title "Cbr Frame Delay, mean"
attr unit s
scalar MultiSatellite_Standalone.ue[0].app[0] cbrFrameLoss:mean 0
attr recordingmode mean
attr source cbrFrameLossSignal
attr title "Cbr Frame Loss, mean"
attr unit ratio
par MultiSatellite_Standalone.ue[0].at typename "\"inet.common.MessageDispatcher\""
par MultiSatellite_Standalone.ue[0].at displayStringTextFormat "\"processed %p pk (%l)\""
par MultiSatellite_Standalone.ue[0].at forwardServiceRegistration true
par MultiSatellite_Standalone.ue[0].at forwardProtocolRegistration true
par MultiSatellite_Standalone.ue[0].tn typename "\"inet.common.MessageDispatcher\""
par MultiSatellite_Standalone.ue[0].tn displayStringTextFormat "\"processed %p pk (%l)\""
par MultiSatellite_Standalone.ue[0].tn forwardServiceRegistration true
par MultiSatellite_Standalone.ue[0].tn forwardProtocolRegistration true
par MultiSatellite_Standalone.ue[0].nl typename "\"inet.common.MessageDispatcher\""
par MultiSatellite_Standalone.ue[0].nl displayStringTextFormat "\"processed %p pk (%l)\""
par MultiSatellite_Standalone.ue[0].nl forwardServiceRegistration true
par MultiSatellite_Standalone.ue[0].nl forwardProtocolRegistration true
par MultiSatellite_Standalone.ue[0] typename "\"simu5g.nodes.NR.NRUe\""
par MultiSatellite_Standalone.ue[0] numApps 1
par MultiSatellite_Standalone.ue[0] hasUdp true
par MultiSatellite_Standalone.ue[0] hasTcp true
par MultiSatellite_Standalone.ue[0] hasSctp false
par MultiSatellite_Standalone.ue[0] nodeType "\"UE\""
par MultiSatellite_Standalone.ue[0] masterId 0
attr mutable ""
par MultiSatellite_Standalone.ue[0] macNodeId 1025
attr mutable ""
par MultiSatellite_Standalone.ue[0] macCellId 0
attr mutable ""
par MultiSatellite_Standalone.ue[0] nicType "\"NRNicUe\""
par MultiSatellite_Standalone.ue[0] hasIpv4 true
par MultiSatellite_Standalone.ue[0] hasIpv6 false
par MultiSatellite_Standalone.ue[0] numEthInterfaces 0
par MultiSatellite_Standalone.ue[0] extHostAddress "\"\""
par MultiSatellite_Standalone.ue[0] numLoInterfaces 1
par MultiSatellite_Standalone.ue[0] numPcapRecorders 0
par MultiSatellite_Standalone.ue[0] hasRNISupport false
par MultiSatellite_Standalone.ue[0] nrMasterId 2
attr mutable ""
par MultiSatellite_Standalone.ue[0] nrMacNodeId 2049
attr mutable ""
par MultiSatellite_Standalone.ue[0] nrMacCellId 1
attr mutable ""
par MultiSatellite_Standalone typename "\"simu5g.simulations.SatCom.networks.MultiSatellite_Standalone\""
par MultiSatellite_Standalone numUe 1
par MultiSatellite_Standalone numBgCells 0

